##########                 Name:                 1433
##########          Protonation:                   86
##########               SMILES:   c1ccc(cc1)COc2ccc3cc(ccc3n2)c4c5c(ncnc5n(n4)CC6CC[NH2+]CC6)N
##########            Long Name:   y-6-quinolyl)-1-(piperidin-1-ium-4-ylmethyl)pyrazolo[3,4-d]pyrimidin-4-amine
##########          FlexRecCode: 1
##########               Number:                  168
##########   Ligand Source File: /raid1/people/rgc/Examples/tdt/part3/ligand22set/build/ligand22set-0000001.db2.g
##########           GlobalRank: 1
##########                 Rank:                    1
##########               Setnum:                   65
##########             Matchnum:                64903
##########                Cloud:                    1
##########        Electrostatic:           -33.276558
##########        Van der Waals:           -42.740585
##########  Ligand Polar Desolv:            11.809599
########## Ligand Apolar Desolv:            -5.234753
##########      Internal Energy:             0.000000
##########      Receptor Energy: 0.0
########## Receptor Desolvation:             0.000000
########## Receptor Hydrophobic:             0.000000
##########         Total Energy: -69.44
##########        Ligand Charge:             1.000000
##########            Arbitrary:    +999.9990
##########     heavy atom count:   35
##########           pose count:    7
##########        Ligand Energy:             0.000000
# num electro vdwattr vdwrepu polsolv apolsol rdesolv rhydroe totalscore fullpol fullapo
#   1   -2.12   -2.94    1.07   -5.07    0.52    0.00    0.00      -8.55   -7.97    0.81
#   2    2.15   -2.20    0.49    2.40   -1.32    0.00    0.00       1.52    3.91   -2.15
#   3   -1.46   -1.83    0.47   -1.51   -0.23    0.00    0.00      -4.56   -2.84   -0.44
#   4    0.60   -1.83    0.47    1.53   -0.81    0.00    0.00      -0.04    3.36   -1.77
#   5    0.27   -2.02    0.61   -2.75    0.94    0.00    0.00      -2.95   -5.89    2.01
#   6   -0.24   -3.31    1.99    2.00   -1.67    0.00    0.00      -1.22    3.80   -3.16
#   7   -2.69   -3.69    1.60   -3.07    1.26    0.00    0.00      -6.58   -5.05    2.08
#   8   -0.36   -1.86    0.42   -1.72    0.46    0.00    0.00      -3.07   -3.88    1.04
#   9   -0.55   -1.27    0.25    0.73   -0.18    0.00    0.00      -1.01    1.73   -0.43
#  10    1.05   -0.59    0.03   -0.75   -0.05    0.00    0.00      -0.31   -2.09   -0.15
#  11    1.37   -0.53    0.05   -0.87   -0.06    0.00    0.00      -0.04   -3.27   -0.21
#  12    0.08   -0.70    0.14    0.24   -0.13    0.00    0.00      -0.37    0.86   -0.47
#  13   12.63   -1.90    2.15   -5.50    0.30    0.00    0.00       7.68  -16.22    0.89
#  14   -8.41   -0.02    0.00    3.27    0.11    0.00    0.00      -5.04   16.73    0.56
#  15  -18.33   -0.26    0.23    6.20    0.20    0.00    0.00     -11.97   18.00    0.57
#  16    0.10   -1.09    0.22    0.26   -0.20    0.00    0.00      -0.71    0.62   -0.47
#  17    1.89   -0.71    0.04   -1.52   -0.09    0.00    0.00      -0.38   -3.58   -0.22
#  18   -1.60   -3.26    2.94   -1.03    0.56    0.00    0.00      -2.39   -2.18    1.18
#  19    1.69   -2.35    1.25    0.58   -0.36    0.00    0.00       0.80    1.19   -0.75
#  20   -0.67   -2.19    0.65   -0.19   -0.21    0.00    0.00      -2.62   -0.34   -0.38
#  21   -0.67   -2.37    0.62   -0.22   -0.19    0.00    0.00      -2.83   -0.37   -0.31
#  22   -1.52   -2.34    0.43   -0.63   -0.26    0.00    0.00      -4.33   -0.97   -0.40
#  23   -0.10   -3.47    1.04    0.02   -0.31    0.00    0.00      -2.82    0.03   -0.46
#  24   -0.79   -3.69    1.28   -0.74   -0.30    0.00    0.00      -4.25   -1.15   -0.46
#  25    3.62   -2.57    0.92    0.46   -0.43    0.00    0.00       2.00    0.71   -0.66
#  26   -2.64   -2.04    0.43   -0.30    0.56    0.00    0.00      -4.00   -0.46    0.85
#  27    1.00   -1.59    0.49    0.19   -0.08    0.00    0.00       0.02    0.29   -0.12
#  28   -0.84   -2.19    0.70   -0.17   -0.25    0.00    0.00      -2.74   -0.26   -0.39
#  29   -1.14   -4.50    7.75   -0.18   -0.26    0.00    0.00       1.67   -0.32   -0.45
#  30   -1.53   -4.30    4.56   -0.31   -0.31    0.00    0.00      -1.88   -0.47   -0.47
#  31   -0.74   -2.40    0.44   -0.31   -0.32    0.00    0.00      -3.33   -0.45   -0.47
#  32   -0.57   -2.29    0.68   -0.29   -0.31    0.00    0.00      -2.77   -0.45   -0.47
#  33   -0.51   -2.01    0.36   -0.19   -0.29    0.00    0.00      -2.64   -0.30   -0.45
#  34   -7.02   -2.53    0.88   -0.80    1.73    0.00    0.00      -7.75   -1.30    2.80
#  35    2.88   -2.54    0.74    0.31   -0.44    0.00    0.00       0.95    0.51   -0.73
#  36   -1.67   -3.40    1.45   -0.45   -0.27    0.00    0.00      -4.33   -0.75   -0.46
#  37   -1.23   -3.35    3.20   -0.19   -0.26    0.00    0.00      -1.84   -0.34   -0.45
#  38   -0.88   -0.08    0.00    2.82    0.36    0.00    0.00       2.22    4.64    0.59
#  39    1.71   -0.04    0.00    1.99    0.17    0.00    0.00       3.84    4.24    0.36
#  40   -1.15   -1.20    2.58    1.66   -0.13    0.00    0.00       1.75    3.61   -0.28
#  41   -0.37   -0.58    0.14    0.63   -0.12    0.00    0.00      -0.31    1.41   -0.28
#  42   -0.43   -0.72    0.55    0.65   -0.10    0.00    0.00      -0.06    1.88   -0.28
#  43   -0.80   -0.20    0.03    0.23   -0.05    0.00    0.00      -0.79    1.22   -0.28
#  44   -0.83   -0.22    0.03    0.45   -0.05    0.00    0.00      -0.61    2.48   -0.28
#  45   -0.79   -0.16    0.03    0.01   -0.03    0.00    0.00      -0.94    0.10   -0.22
#  46   -1.55   -0.15    0.02    0.65   -0.04    0.00    0.00      -1.07    4.79   -0.28
#  47   -1.96   -0.29    0.06    0.95   -0.07    0.00    0.00      -1.31    3.60   -0.28
#  48   -3.81   -0.50    0.24    2.30   -0.11    0.00    0.00      -1.89    6.03   -0.28
#  49   -3.07   -0.44    0.11    1.60   -0.11    0.00    0.00      -1.92    4.00   -0.28
#  50   -1.17   -0.23    0.02    0.53   -0.07    0.00    0.00      -0.93    2.08   -0.28
#  51   -1.37   -0.35    0.08    0.93   -0.08    0.00    0.00      -0.78    3.23   -0.28
#  52    1.11   -0.74    0.57    0.89   -0.13    0.00    0.00       1.70    1.70   -0.24
#  53   -0.11   -0.95    0.30    1.75   -0.18    0.00    0.00       0.81    2.72   -0.28
#  54    0.02   -1.31    1.30    0.81   -0.18    0.00    0.00       0.63    1.27   -0.28
#  55    0.62   -0.75    0.65    0.07   -0.14    0.00    0.00       0.46    0.15   -0.28
#  56    0.75   -0.71    0.69    0.09   -0.14    0.00    0.00       0.68    0.18   -0.28
#  57    1.75   -1.01    0.97    0.31   -0.15    0.00    0.00       1.87    0.59   -0.28
#  58    2.03   -1.08    0.59    0.55   -0.18    0.00    0.00       1.91    0.85   -0.28
#  59    0.70   -0.49    0.09    0.48   -0.16    0.00    0.00       0.62    0.86   -0.28
#  60    0.48   -0.77    1.08    0.39   -0.14    0.00    0.00       1.04    0.80   -0.28
#  61    0.62   -0.42    0.10    0.27   -0.15    0.00    0.00       0.42    0.51   -0.28
#  62    1.23   -1.33    2.22    0.58   -0.17    0.00    0.00       2.53    0.95   -0.28
#  63    2.07   -0.92    1.54    0.78   -0.13    0.00    0.00       3.34    1.63   -0.28

@<TRIPOS>MOLECULE
             1433        86
   63    68     0     0     0



@<TRIPOS>ATOM
      1 N1         19.8923    12.8295    64.3500 N.pl3      1          -0.8249
      2 C1         21.1282    13.4027    64.1208 C.ar       1           0.5230
      3 C2         21.2688    14.7973    64.0269 C.ar       1          -0.3257
      4 C3         22.5500    15.3300    63.7929 C.ar       1           0.3748
      5 N2         23.5783    14.4905    63.6706 N.ar       1          -0.5814
      6 C4         23.3992    13.1916    63.7664 C.ar       1           0.3909
      7 N3         22.2151    12.6488    63.9890 N.ar       1          -0.5996
      8 N4         22.4130    16.6855    63.7452 N.pl3      1          -0.3857
      9 C5         23.5023    17.6387    63.5201 C.3        1           0.1476
     10 C6         23.6518    17.8972    62.0196 C.3        1          -0.1199
     11 C7         25.0417    18.4741    61.7353 C.3        1          -0.1423
     12 C8         25.1559    18.8043    60.2454 C.3        1          -0.0051
     13 N5         24.1313    19.7894    59.8790 N.4        1          -0.5050
     14 H1         24.2347    20.6112    60.4553 H          1           0.4290
     15 H2         24.2426    20.0440    58.9090 H          1           0.4324
     16 C9         22.7950    19.2169    60.0813 C.3        1          -0.0045
     17 C10        22.5899    18.9025    61.5648 C.3        1          -0.1410
     18 N6         21.0704    17.0247    63.9441 N.2        1          -0.2373
     19 C11        20.3562    15.9372    64.1152 C.2        1           0.1865
     20 C12        18.8947    15.8752    64.3531 C.ar       1          -0.0463
     21 C13        18.4111    15.3047    65.5178 C.ar       1          -0.0608
     22 C14        17.0278    15.2500    65.7352 C.ar       1          -0.1358
     23 C15        16.4960    14.6773    66.9093 C.ar       1          -0.0232
     24 C16        15.1416    14.6554    67.0605 C.ar       1          -0.1699
     25 C17        14.3197    15.1936    66.0625 C.ar       1           0.3678
     26 O1         12.9743    15.1649    66.2271 O.3        1          -0.2943
     27 C18        12.1804    15.7267    65.1802 C.3        1           0.1145
     28 C19        11.8499    14.6571    64.1712 C.ar       1          -0.1052
     29 C20        12.6959    14.4311    63.1015 C.ar       1          -0.0946
     30 C21        12.3927    13.4501    62.1760 C.ar       1          -0.1225
     31 C22        11.2440    12.6951    62.3201 C.ar       1          -0.1060
     32 C23        10.3987    12.9202    63.3906 C.ar       1          -0.1223
     33 C24        10.7039    13.8984    64.3186 C.ar       1          -0.0945
     34 N7         14.8211    15.7266    64.9694 N.ar       1          -0.5422
     35 C25        16.1420    15.7777    64.7633 C.ar       1           0.1857
     36 C26        16.6657    16.3503    63.5905 C.ar       1          -0.0958
     37 C27        18.0097    16.4006    63.3984 C.ar       1          -0.0640
     38 H3         19.8101    11.8654    64.4186 H          1           0.4149
     39 H4         19.1075    13.3913    64.4461 H          1           0.4151
     40 H5         24.2552    12.5416    63.6615 H          1           0.2063
     41 H6         23.2763    18.5756    64.0294 H          1           0.1061
     42 H7         24.4322    17.2271    63.9124 H          1           0.1046
     43 H8         23.5256    16.9620    61.4742 H          1           0.0970
     44 H9         25.1858    19.3819    62.3213 H          1           0.0995
     45 H10        25.8021    17.7414    62.0050 H          1           0.1055
     46 H11        26.1444    19.2152    60.0396 H          1           0.1342
     47 H12        25.0118    17.8961    59.6605 H          1           0.1280
     48 H13        22.0404    19.9323    59.7542 H          1           0.1367
     49 H14        22.7012    18.2998    59.4997 H          1           0.1306
     50 H15        21.5978    18.4758    61.7126 H          1           0.1172
     51 H16        22.6831    19.8191    62.1474 H          1           0.0949
     52 H17        19.0942    14.9048    66.2526 H          1           0.1389
     53 H18        17.1449    14.2666    67.6686 H          1           0.1524
     54 H19        14.7031    14.2236    67.9480 H          1           0.1521
     55 H20        11.2579    16.1284    65.5993 H          1           0.0791
     56 H21        12.7365    16.5272    64.6922 H          1           0.0791
     57 H22        13.5934    15.0212    62.9886 H          1           0.1237
     58 H23        13.0532    13.2739    61.3398 H          1           0.1269
     59 H24        11.0065    11.9287    61.5971 H          1           0.1264
     60 H25         9.5009    12.3304    63.5033 H          1           0.1270
     61 H26        10.0454    14.0721    65.1567 H          1           0.1239
     62 H27        15.9987    16.7549    62.8435 H          1           0.1435
     63 H28        18.4024    16.8470    62.4969 H          1           0.1341
@<TRIPOS>BOND
     1    1    2 1
     2    1   38 1
     3    1   39 1
     4    2    7 ar
     5    2    3 ar
     6    3   19 1
     7    3    4 ar
     8    4    5 ar
     9    4    8 1
    10    5    6 ar
    11    6    7 ar
    12    6   40 1
    13    8    9 1
    14    8   18 1
    15    9   10 1
    16    9   41 1
    17    9   42 1
    18   10   17 1
    19   10   11 1
    20   10   43 1
    21   11   12 1
    22   11   44 1
    23   11   45 1
    24   12   13 1
    25   12   46 1
    26   12   47 1
    27   13   14 1
    28   13   15 1
    29   13   16 1
    30   16   17 1
    31   16   48 1
    32   16   49 1
    33   17   50 1
    34   17   51 1
    35   18   19 2
    36   19   20 1
    37   20   37 ar
    38   20   21 ar
    39   21   22 ar
    40   21   52 1
    41   22   35 ar
    42   22   23 ar
    43   23   24 ar
    44   23   53 1
    45   24   25 ar
    46   24   54 1
    47   25   26 1
    48   25   34 ar
    49   26   27 1
    50   27   28 1
    51   27   55 1
    52   27   56 1
    53   28   33 ar
    54   28   29 ar
    55   29   30 ar
    56   29   57 1
    57   30   31 ar
    58   30   58 1
    59   31   32 ar
    60   31   59 1
    61   32   33 ar
    62   32   60 1
    63   33   61 1
    64   34   35 ar
    65   35   36 ar
    66   36   37 ar
    67   36   62 1
    68   37   63 1
##########                 Name:                 1433
##########          Protonation:                   86
##########               SMILES:   c1ccc(cc1)COc2ccc3cc(ccc3n2)c4c5c(ncnc5n(n4)CC6CC[NH2+]CC6)N
##########            Long Name:   y-6-quinolyl)-1-(piperidin-1-ium-4-ylmethyl)pyrazolo[3,4-d]pyrimidin-4-amine
##########          FlexRecCode: 1
##########               Number:                  168
##########   Ligand Source File: /raid1/people/rgc/Examples/tdt/part3/ligand22set/build/ligand22set-0000001.db2.g
##########           GlobalRank: 1
##########                 Rank:                    2
##########               Setnum:                   87
##########             Matchnum:                64903
##########                Cloud:                    1
##########        Electrostatic:           -31.961258
##########        Van der Waals:           -43.867531
##########  Ligand Polar Desolv:            12.736175
########## Ligand Apolar Desolv:            -5.276140
##########      Internal Energy:             0.000000
##########      Receptor Energy: 0.0
########## Receptor Desolvation:             0.000000
########## Receptor Hydrophobic:             0.000000
##########         Total Energy: -68.37
##########        Ligand Charge:             1.000000
##########            Arbitrary:    +999.9990
##########     heavy atom count:   35
##########           pose count:    7
##########        Ligand Energy:             0.000000
# num electro vdwattr vdwrepu polsolv apolsol rdesolv rhydroe totalscore fullpol fullapo
#   1   -2.12   -2.94    1.07   -5.07    0.52    0.00    0.00      -8.55   -7.97    0.81
#   2    2.15   -2.20    0.49    2.40   -1.32    0.00    0.00       1.52    3.91   -2.15
#   3   -1.46   -1.83    0.47   -1.51   -0.23    0.00    0.00      -4.56   -2.84   -0.44
#   4    0.60   -1.83    0.47    1.53   -0.81    0.00    0.00      -0.04    3.36   -1.77
#   5    0.27   -2.02    0.61   -2.75    0.94    0.00    0.00      -2.95   -5.89    2.01
#   6   -0.24   -3.31    1.99    2.00   -1.67    0.00    0.00      -1.22    3.80   -3.16
#   7   -2.69   -3.69    1.60   -3.07    1.26    0.00    0.00      -6.58   -5.05    2.08
#   8   -0.36   -1.86    0.42   -1.72    0.46    0.00    0.00      -3.07   -3.88    1.04
#   9   -0.55   -1.27    0.25    0.73   -0.18    0.00    0.00      -1.01    1.73   -0.43
#  10    1.06   -0.82    0.06   -0.83   -0.06    0.00    0.00      -0.59   -2.09   -0.15
#  11    1.74   -0.72    0.07   -1.31   -0.08    0.00    0.00      -0.30   -3.27   -0.21
#  12    0.11   -1.07    0.16    0.39   -0.21    0.00    0.00      -0.62    0.86   -0.47
#  13   13.17   -1.76    1.12   -6.18    0.34    0.00    0.00       6.69  -16.22    0.89
#  14  -11.06   -0.04    0.00    4.29    0.14    0.00    0.00      -6.66   16.73    0.56
#  15  -14.49   -0.07    0.01    6.80    0.22    0.00    0.00      -7.54   18.00    0.57
#  16    0.08   -0.91    0.21    0.21   -0.16    0.00    0.00      -0.56    0.62   -0.47
#  17    1.49   -0.89    0.13   -1.19   -0.07    0.00    0.00      -0.54   -3.58   -0.22
#  18   -1.60   -3.26    2.94   -1.03    0.56    0.00    0.00      -2.39   -2.18    1.18
#  19    1.69   -2.35    1.25    0.58   -0.36    0.00    0.00       0.80    1.19   -0.75
#  20   -0.67   -2.19    0.65   -0.19   -0.21    0.00    0.00      -2.62   -0.34   -0.38
#  21   -0.67   -2.37    0.62   -0.22   -0.19    0.00    0.00      -2.83   -0.37   -0.31
#  22   -1.52   -2.34    0.43   -0.63   -0.26    0.00    0.00      -4.33   -0.97   -0.40
#  23   -0.10   -3.47    1.04    0.02   -0.31    0.00    0.00      -2.82    0.03   -0.46
#  24   -0.79   -3.69    1.28   -0.74   -0.30    0.00    0.00      -4.25   -1.15   -0.46
#  25    3.62   -2.57    0.92    0.46   -0.43    0.00    0.00       2.00    0.71   -0.66
#  26   -2.64   -2.04    0.43   -0.30    0.56    0.00    0.00      -4.00   -0.46    0.85
#  27    1.00   -1.59    0.49    0.19   -0.08    0.00    0.00       0.02    0.29   -0.12
#  28   -0.84   -2.19    0.70   -0.17   -0.25    0.00    0.00      -2.74   -0.26   -0.39
#  29   -1.14   -4.50    7.75   -0.18   -0.26    0.00    0.00       1.67   -0.32   -0.45
#  30   -1.53   -4.30    4.56   -0.31   -0.31    0.00    0.00      -1.88   -0.47   -0.47
#  31   -0.74   -2.40    0.44   -0.31   -0.32    0.00    0.00      -3.33   -0.45   -0.47
#  32   -0.57   -2.29    0.68   -0.29   -0.31    0.00    0.00      -2.77   -0.45   -0.47
#  33   -0.51   -2.01    0.36   -0.19   -0.29    0.00    0.00      -2.64   -0.30   -0.45
#  34   -7.02   -2.53    0.88   -0.80    1.73    0.00    0.00      -7.75   -1.30    2.80
#  35    2.88   -2.54    0.74    0.31   -0.44    0.00    0.00       0.95    0.51   -0.73
#  36   -1.67   -3.40    1.45   -0.45   -0.27    0.00    0.00      -4.33   -0.75   -0.46
#  37   -1.23   -3.35    3.20   -0.19   -0.26    0.00    0.00      -1.84   -0.34   -0.45
#  38   -0.88   -0.08    0.00    2.82    0.36    0.00    0.00       2.22    4.64    0.59
#  39    1.71   -0.04    0.00    1.99    0.17    0.00    0.00       3.84    4.24    0.36
#  40   -1.15   -1.20    2.58    1.66   -0.13    0.00    0.00       1.75    3.61   -0.28
#  41   -0.25   -0.94    0.56    0.66   -0.13    0.00    0.00      -0.11    1.41   -0.28
#  42   -0.55   -0.29    0.06    0.44   -0.07    0.00    0.00      -0.41    1.88   -0.28
#  43   -0.83   -0.39    0.07    0.45   -0.10    0.00    0.00      -0.81    1.22   -0.28
#  44   -1.18   -0.21    0.03    0.53   -0.06    0.00    0.00      -0.90    2.48   -0.28
#  45   -0.86   -0.28    0.07    0.03   -0.06    0.00    0.00      -1.10    0.10   -0.22
#  46   -3.63   -0.59    0.21    2.15   -0.13    0.00    0.00      -1.99    4.79   -0.28
#  47   -2.74   -0.30    0.03    1.25   -0.10    0.00    0.00      -1.85    3.60   -0.28
#  48   -1.90   -0.18    0.02    1.09   -0.05    0.00    0.00      -1.02    6.03   -0.28
#  49   -2.99   -0.74    1.22    1.26   -0.09    0.00    0.00      -1.33    4.00   -0.28
#  50   -0.72   -0.64    0.34    0.69   -0.09    0.00    0.00      -0.43    2.08   -0.28
#  51   -0.90   -0.16    0.01    0.46   -0.04    0.00    0.00      -0.63    3.23   -0.28
#  52    1.11   -0.74    0.57    0.89   -0.13    0.00    0.00       1.70    1.70   -0.24
#  53   -0.11   -0.95    0.30    1.75   -0.18    0.00    0.00       0.81    2.72   -0.28
#  54    0.02   -1.31    1.30    0.81   -0.18    0.00    0.00       0.63    1.27   -0.28
#  55    0.62   -0.75    0.65    0.07   -0.14    0.00    0.00       0.46    0.15   -0.28
#  56    0.75   -0.71    0.69    0.09   -0.14    0.00    0.00       0.68    0.18   -0.28
#  57    1.75   -1.01    0.97    0.31   -0.15    0.00    0.00       1.87    0.59   -0.28
#  58    2.03   -1.08    0.59    0.55   -0.18    0.00    0.00       1.91    0.85   -0.28
#  59    0.70   -0.49    0.09    0.48   -0.16    0.00    0.00       0.62    0.86   -0.28
#  60    0.48   -0.77    1.08    0.39   -0.14    0.00    0.00       1.04    0.80   -0.28
#  61    0.62   -0.42    0.10    0.27   -0.15    0.00    0.00       0.42    0.51   -0.28
#  62    1.23   -1.33    2.22    0.58   -0.17    0.00    0.00       2.53    0.95   -0.28
#  63    2.07   -0.92    1.54    0.78   -0.13    0.00    0.00       3.34    1.63   -0.28

@<TRIPOS>MOLECULE
             1433        86
   63    68     0     0     0



@<TRIPOS>ATOM
      1 N1         19.8923    12.8295    64.3500 N.pl3      1          -0.8249
      2 C1         21.1282    13.4027    64.1208 C.ar       1           0.5230
      3 C2         21.2688    14.7973    64.0269 C.ar       1          -0.3257
      4 C3         22.5500    15.3300    63.7929 C.ar       1           0.3748
      5 N2         23.5783    14.4905    63.6706 N.ar       1          -0.5814
      6 C4         23.3992    13.1916    63.7664 C.ar       1           0.3909
      7 N3         22.2151    12.6488    63.9890 N.ar       1          -0.5996
      8 N4         22.4130    16.6855    63.7452 N.pl3      1          -0.3857
      9 C5         23.5023    17.6387    63.5201 C.3        1           0.1476
     10 C6         23.0567    18.6914    62.5032 C.3        1          -0.1199
     11 C7         22.7068    18.0077    61.1782 C.3        1          -0.1423
     12 C8         22.3387    19.0725    60.1428 C.3        1          -0.0051
     13 N5         23.4758    19.9788    59.9421 N.4        1          -0.5050
     14 H1         24.2847    19.4448    59.6612 H          1           0.4290
     15 H2         23.2487    20.6473    59.2214 H          1           0.4324
     16 C9         23.7712    20.6913    61.1907 C.3        1          -0.0045
     17 C10        24.1944    19.6889    62.2667 C.3        1          -0.1410
     18 N6         21.0704    17.0247    63.9441 N.2        1          -0.2373
     19 C11        20.3562    15.9372    64.1152 C.2        1           0.1865
     20 C12        18.8947    15.8752    64.3531 C.ar       1          -0.0463
     21 C13        18.4111    15.3047    65.5178 C.ar       1          -0.0608
     22 C14        17.0278    15.2500    65.7352 C.ar       1          -0.1358
     23 C15        16.4960    14.6773    66.9093 C.ar       1          -0.0232
     24 C16        15.1416    14.6554    67.0605 C.ar       1          -0.1699
     25 C17        14.3197    15.1936    66.0625 C.ar       1           0.3678
     26 O1         12.9743    15.1649    66.2271 O.3        1          -0.2943
     27 C18        12.1804    15.7267    65.1802 C.3        1           0.1145
     28 C19        11.8499    14.6571    64.1712 C.ar       1          -0.1052
     29 C20        12.6959    14.4311    63.1015 C.ar       1          -0.0946
     30 C21        12.3927    13.4501    62.1760 C.ar       1          -0.1225
     31 C22        11.2440    12.6951    62.3201 C.ar       1          -0.1060
     32 C23        10.3987    12.9202    63.3906 C.ar       1          -0.1223
     33 C24        10.7039    13.8984    64.3186 C.ar       1          -0.0945
     34 N7         14.8211    15.7266    64.9694 N.ar       1          -0.5422
     35 C25        16.1420    15.7777    64.7633 C.ar       1           0.1857
     36 C26        16.6657    16.3503    63.5905 C.ar       1          -0.0958
     37 C27        18.0097    16.4006    63.3984 C.ar       1          -0.0640
     38 H3         19.8101    11.8654    64.4186 H          1           0.4149
     39 H4         19.1075    13.3913    64.4461 H          1           0.4151
     40 H5         24.2552    12.5416    63.6615 H          1           0.2063
     41 H6         23.7577    18.1273    64.4605 H          1           0.1061
     42 H7         24.3747    17.1097    63.1367 H          1           0.1046
     43 H8         22.1825    19.2192    62.8841 H          1           0.0970
     44 H9         23.5662    17.4379    60.8247 H          1           0.0995
     45 H10        21.8608    17.3369    61.3271 H          1           0.1055
     46 H11        22.0889    18.5889    59.1982 H          1           0.1342
     47 H12        21.4794    19.6415    60.4971 H          1           0.1280
     48 H13        24.5790    21.4031    61.0202 H          1           0.1367
     49 H14        22.8812    21.2259    61.5228 H          1           0.1306
     50 H15        24.4116    20.2197    63.1936 H          1           0.1172
     51 H16        25.0846    19.1539    61.9357 H          1           0.0949
     52 H17        19.0942    14.9048    66.2526 H          1           0.1389
     53 H18        17.1449    14.2666    67.6686 H          1           0.1524
     54 H19        14.7031    14.2236    67.9480 H          1           0.1521
     55 H20        11.2579    16.1284    65.5993 H          1           0.0791
     56 H21        12.7365    16.5272    64.6922 H          1           0.0791
     57 H22        13.5934    15.0212    62.9886 H          1           0.1237
     58 H23        13.0532    13.2739    61.3398 H          1           0.1269
     59 H24        11.0065    11.9287    61.5971 H          1           0.1264
     60 H25         9.5009    12.3304    63.5033 H          1           0.1270
     61 H26        10.0454    14.0721    65.1567 H          1           0.1239
     62 H27        15.9987    16.7549    62.8435 H          1           0.1435
     63 H28        18.4024    16.8470    62.4969 H          1           0.1341
@<TRIPOS>BOND
     1    1    2 1
     2    1   38 1
     3    1   39 1
     4    2    7 ar
     5    2    3 ar
     6    3   19 1
     7    3    4 ar
     8    4    5 ar
     9    4    8 1
    10    5    6 ar
    11    6    7 ar
    12    6   40 1
    13    8    9 1
    14    8   18 1
    15    9   10 1
    16    9   41 1
    17    9   42 1
    18   10   17 1
    19   10   11 1
    20   10   43 1
    21   11   12 1
    22   11   44 1
    23   11   45 1
    24   12   13 1
    25   12   46 1
    26   12   47 1
    27   13   14 1
    28   13   15 1
    29   13   16 1
    30   16   17 1
    31   16   48 1
    32   16   49 1
    33   17   50 1
    34   17   51 1
    35   18   19 2
    36   19   20 1
    37   20   37 ar
    38   20   21 ar
    39   21   22 ar
    40   21   52 1
    41   22   35 ar
    42   22   23 ar
    43   23   24 ar
    44   23   53 1
    45   24   25 ar
    46   24   54 1
    47   25   26 1
    48   25   34 ar
    49   26   27 1
    50   27   28 1
    51   27   55 1
    52   27   56 1
    53   28   33 ar
    54   28   29 ar
    55   29   30 ar
    56   29   57 1
    57   30   31 ar
    58   30   58 1
    59   31   32 ar
    60   31   59 1
    61   32   33 ar
    62   32   60 1
    63   33   61 1
    64   34   35 ar
    65   35   36 ar
    66   36   37 ar
    67   36   62 1
    68   37   63 1
##########                 Name:                 1433
##########          Protonation:                   86
##########               SMILES:   c1ccc(cc1)COc2ccc3cc(ccc3n2)c4c5c(ncnc5n(n4)CC6CC[NH2+]CC6)N
##########            Long Name:   y-6-quinolyl)-1-(piperidin-1-ium-4-ylmethyl)pyrazolo[3,4-d]pyrimidin-4-amine
##########          FlexRecCode: 1
##########               Number:                  169
##########   Ligand Source File: /raid1/people/rgc/Examples/tdt/part3/ligand22set/build/ligand22set-0000001.db2.g
##########           GlobalRank: 2
##########                 Rank:                    1
##########               Setnum:                  307
##########             Matchnum:                64903
##########                Cloud:                    1
##########        Electrostatic:           -22.405109
##########        Van der Waals:           -42.899826
##########  Ligand Polar Desolv:             9.948865
########## Ligand Apolar Desolv:            -5.252679
##########      Internal Energy:             0.000000
##########      Receptor Energy: 0.0
########## Receptor Desolvation:             0.000000
########## Receptor Hydrophobic:             0.000000
##########         Total Energy: -60.61
##########        Ligand Charge:             1.000000
##########            Arbitrary:    +999.9990
##########     heavy atom count:   35
##########           pose count:    7
##########        Ligand Energy:             0.000000
# num electro vdwattr vdwrepu polsolv apolsol rdesolv rhydroe totalscore fullpol fullapo
#   1   -2.12   -2.94    1.07   -5.07    0.52    0.00    0.00      -8.55   -7.97    0.81
#   2    2.15   -2.20    0.49    2.40   -1.32    0.00    0.00       1.52    3.91   -2.15
#   3   -1.46   -1.83    0.47   -1.51   -0.23    0.00    0.00      -4.56   -2.84   -0.44
#   4    0.60   -1.83    0.47    1.53   -0.81    0.00    0.00      -0.04    3.36   -1.77
#   5    0.27   -2.02    0.61   -2.75    0.94    0.00    0.00      -2.95   -5.89    2.01
#   6   -0.24   -3.31    1.99    2.00   -1.67    0.00    0.00      -1.22    3.80   -3.16
#   7   -2.69   -3.69    1.60   -3.07    1.26    0.00    0.00      -6.58   -5.05    2.08
#   8   -0.36   -1.86    0.42   -1.72    0.46    0.00    0.00      -3.07   -3.88    1.04
#   9   -0.55   -1.27    0.25    0.73   -0.18    0.00    0.00      -1.01    1.73   -0.43
#  10    1.05   -0.59    0.03   -0.75   -0.05    0.00    0.00      -0.31   -2.09   -0.15
#  11    1.10   -0.63    0.08   -1.03   -0.07    0.00    0.00      -0.55   -3.27   -0.21
#  12    0.06   -1.21    0.48    0.32   -0.17    0.00    0.00      -0.53    0.86   -0.47
#  13    7.44   -1.18    0.38   -5.02    0.28    0.00    0.00       1.89  -16.22    0.89
#  14   -3.72   -0.01    0.00    1.99    0.07    0.00    0.00      -1.67   16.73    0.56
#  15   -8.30   -0.06    0.00    5.75    0.18    0.00    0.00      -2.42   18.00    0.57
#  16    0.08   -0.81    0.25    0.19   -0.14    0.00    0.00      -0.44    0.62   -0.47
#  17    1.60   -0.60    0.04   -1.10   -0.07    0.00    0.00      -0.12   -3.58   -0.22
#  18   -1.60   -3.26    2.94   -1.03    0.56    0.00    0.00      -2.39   -2.18    1.18
#  19    1.69   -2.35    1.25    0.58   -0.36    0.00    0.00       0.80    1.19   -0.75
#  20   -0.67   -2.19    0.65   -0.19   -0.21    0.00    0.00      -2.62   -0.34   -0.38
#  21   -0.67   -2.37    0.62   -0.22   -0.19    0.00    0.00      -2.83   -0.37   -0.31
#  22   -1.52   -2.34    0.43   -0.63   -0.26    0.00    0.00      -4.33   -0.97   -0.40
#  23   -0.10   -3.47    1.04    0.02   -0.31    0.00    0.00      -2.82    0.03   -0.46
#  24   -0.79   -3.69    1.28   -0.74   -0.30    0.00    0.00      -4.25   -1.15   -0.46
#  25    3.62   -2.57    0.92    0.46   -0.43    0.00    0.00       2.00    0.71   -0.66
#  26   -2.64   -2.04    0.43   -0.30    0.56    0.00    0.00      -4.00   -0.46    0.85
#  27    1.00   -1.59    0.49    0.19   -0.08    0.00    0.00       0.02    0.29   -0.12
#  28   -0.84   -2.19    0.70   -0.17   -0.25    0.00    0.00      -2.74   -0.26   -0.39
#  29   -1.14   -4.50    7.75   -0.18   -0.26    0.00    0.00       1.67   -0.32   -0.45
#  30   -1.53   -4.30    4.56   -0.31   -0.31    0.00    0.00      -1.88   -0.47   -0.47
#  31   -0.74   -2.40    0.44   -0.31   -0.32    0.00    0.00      -3.33   -0.45   -0.47
#  32   -0.57   -2.29    0.68   -0.29   -0.31    0.00    0.00      -2.77   -0.45   -0.47
#  33   -0.51   -2.01    0.36   -0.19   -0.29    0.00    0.00      -2.64   -0.30   -0.45
#  34   -7.02   -2.53    0.88   -0.80    1.73    0.00    0.00      -7.75   -1.30    2.80
#  35    2.88   -2.54    0.74    0.31   -0.44    0.00    0.00       0.95    0.51   -0.73
#  36   -1.67   -3.40    1.45   -0.45   -0.27    0.00    0.00      -4.33   -0.75   -0.46
#  37   -1.23   -3.35    3.20   -0.19   -0.26    0.00    0.00      -1.84   -0.34   -0.45
#  38   -0.88   -0.08    0.00    2.82    0.36    0.00    0.00       2.22    4.64    0.59
#  39    1.71   -0.04    0.00    1.99    0.17    0.00    0.00       3.84    4.24    0.36
#  40   -1.15   -1.20    2.58    1.66   -0.13    0.00    0.00       1.75    3.61   -0.28
#  41   -0.37   -0.58    0.14    0.63   -0.12    0.00    0.00      -0.31    1.41   -0.28
#  42   -0.43   -0.72    0.55    0.65   -0.10    0.00    0.00      -0.06    1.88   -0.28
#  43   -1.00   -0.17    0.01    0.22   -0.05    0.00    0.00      -0.99    1.22   -0.28
#  44   -0.62   -0.14    0.01    0.30   -0.03    0.00    0.00      -0.48    2.48   -0.28
#  45   -0.62   -0.30    0.12    0.02   -0.05    0.00    0.00      -0.82    0.10   -0.22
#  46   -1.03   -0.47    0.18    1.74   -0.10    0.00    0.00       0.31    4.79   -0.28
#  47   -2.16   -0.76    1.10    1.39   -0.11    0.00    0.00      -0.54    3.60   -0.28
#  48   -2.34   -0.22    0.06    0.94   -0.04    0.00    0.00      -1.60    6.03   -0.28
#  49   -3.40   -0.40    0.20    1.14   -0.08    0.00    0.00      -2.54    4.00   -0.28
#  50   -1.45   -0.28    0.05    0.47   -0.06    0.00    0.00      -1.28    2.08   -0.28
#  51   -0.78   -0.22    0.04    0.55   -0.05    0.00    0.00      -0.45    3.23   -0.28
#  52    1.11   -0.74    0.57    0.89   -0.13    0.00    0.00       1.70    1.70   -0.24
#  53   -0.11   -0.95    0.30    1.75   -0.18    0.00    0.00       0.81    2.72   -0.28
#  54    0.02   -1.31    1.30    0.81   -0.18    0.00    0.00       0.63    1.27   -0.28
#  55    0.62   -0.75    0.65    0.07   -0.14    0.00    0.00       0.46    0.15   -0.28
#  56    0.75   -0.71    0.69    0.09   -0.14    0.00    0.00       0.68    0.18   -0.28
#  57    1.75   -1.01    0.97    0.31   -0.15    0.00    0.00       1.87    0.59   -0.28
#  58    2.03   -1.08    0.59    0.55   -0.18    0.00    0.00       1.91    0.85   -0.28
#  59    0.70   -0.49    0.09    0.48   -0.16    0.00    0.00       0.62    0.86   -0.28
#  60    0.48   -0.77    1.08    0.39   -0.14    0.00    0.00       1.04    0.80   -0.28
#  61    0.62   -0.42    0.10    0.27   -0.15    0.00    0.00       0.42    0.51   -0.28
#  62    1.23   -1.33    2.22    0.58   -0.17    0.00    0.00       2.53    0.95   -0.28
#  63    2.07   -0.92    1.54    0.78   -0.13    0.00    0.00       3.34    1.63   -0.28

@<TRIPOS>MOLECULE
             1433        86
   63    68     0     0     0



@<TRIPOS>ATOM
      1 N1         19.8923    12.8295    64.3500 N.pl3      1          -0.8249
      2 C1         21.1282    13.4027    64.1208 C.ar       1           0.5230
      3 C2         21.2688    14.7973    64.0269 C.ar       1          -0.3257
      4 C3         22.5500    15.3300    63.7929 C.ar       1           0.3748
      5 N2         23.5783    14.4905    63.6706 N.ar       1          -0.5814
      6 C4         23.3992    13.1916    63.7664 C.ar       1           0.3909
      7 N3         22.2151    12.6488    63.9890 N.ar       1          -0.5996
      8 N4         22.4130    16.6855    63.7452 N.pl3      1          -0.3857
      9 C5         23.5023    17.6387    63.5201 C.3        1           0.1476
     10 C6         23.6518    17.8972    62.0196 C.3        1          -0.1199
     11 C7         24.4445    16.7537    61.3794 C.3        1          -0.1423
     12 C8         24.6588    17.0575    59.8950 C.3        1          -0.0051
     13 N5         25.4056    18.3129    59.7516 N.4        1          -0.5050
     14 H1         26.2797    18.2421    60.2509 H          1           0.4290
     15 H2         25.5907    18.4833    58.7745 H          1           0.4324
     16 C9         24.6199    19.4252    60.2989 C.3        1          -0.0045
     17 C10        24.4041    19.2128    61.7990 C.3        1          -0.1410
     18 N6         21.0704    17.0247    63.9441 N.2        1          -0.2373
     19 C11        20.3562    15.9372    64.1152 C.2        1           0.1865
     20 C12        18.8947    15.8752    64.3531 C.ar       1          -0.0463
     21 C13        18.4111    15.3047    65.5178 C.ar       1          -0.0608
     22 C14        17.0278    15.2500    65.7352 C.ar       1          -0.1358
     23 C15        16.4960    14.6773    66.9093 C.ar       1          -0.0232
     24 C16        15.1416    14.6554    67.0605 C.ar       1          -0.1699
     25 C17        14.3197    15.1936    66.0625 C.ar       1           0.3678
     26 O1         12.9743    15.1649    66.2271 O.3        1          -0.2943
     27 C18        12.1804    15.7267    65.1802 C.3        1           0.1145
     28 C19        11.8499    14.6571    64.1712 C.ar       1          -0.1052
     29 C20        12.6959    14.4311    63.1015 C.ar       1          -0.0946
     30 C21        12.3927    13.4501    62.1760 C.ar       1          -0.1225
     31 C22        11.2439    12.6948    62.3204 C.ar       1          -0.1060
     32 C23        10.3987    12.9202    63.3906 C.ar       1          -0.1223
     33 C24        10.7039    13.8984    64.3186 C.ar       1          -0.0945
     34 N7         14.8211    15.7266    64.9694 N.ar       1          -0.5422
     35 C25        16.1420    15.7777    64.7633 C.ar       1           0.1857
     36 C26        16.6657    16.3503    63.5905 C.ar       1          -0.0958
     37 C27        18.0097    16.4006    63.3984 C.ar       1          -0.0640
     38 H3         19.8101    11.8654    64.4186 H          1           0.4149
     39 H4         19.1075    13.3913    64.4461 H          1           0.4151
     40 H5         24.2552    12.5416    63.6615 H          1           0.2063
     41 H6         23.2763    18.5756    64.0294 H          1           0.1061
     42 H7         24.4322    17.2271    63.9124 H          1           0.1046
     43 H8         22.6654    17.9601    61.5603 H          1           0.0970
     44 H9         25.4109    16.6590    61.8747 H          1           0.0995
     45 H10        23.8883    15.8223    61.4838 H          1           0.1055
     46 H11        25.2227    16.2452    59.4363 H          1           0.1342
     47 H12        23.6920    17.1519    59.4007 H          1           0.1280
     48 H13        25.1551    20.3612    60.1384 H          1           0.1367
     49 H14        23.6539    19.4692    59.7961 H          1           0.1306
     50 H15        23.8189    20.0388    62.2032 H          1           0.1172
     51 H16        25.3696    19.1689    62.3030 H          1           0.0949
     52 H17        19.0942    14.9048    66.2526 H          1           0.1389
     53 H18        17.1449    14.2666    67.6686 H          1           0.1524
     54 H19        14.7031    14.2236    67.9480 H          1           0.1521
     55 H20        11.2579    16.1284    65.5993 H          1           0.0791
     56 H21        12.7365    16.5272    64.6922 H          1           0.0791
     57 H22        13.5934    15.0212    62.9886 H          1           0.1237
     58 H23        13.0532    13.2739    61.3398 H          1           0.1269
     59 H24        11.0068    11.9287    61.5970 H          1           0.1264
     60 H25         9.5009    12.3304    63.5033 H          1           0.1270
     61 H26        10.0454    14.0721    65.1567 H          1           0.1239
     62 H27        15.9987    16.7549    62.8435 H          1           0.1435
     63 H28        18.4024    16.8470    62.4969 H          1           0.1341
@<TRIPOS>BOND
     1    1    2 1
     2    1   38 1
     3    1   39 1
     4    2    7 ar
     5    2    3 ar
     6    3   19 1
     7    3    4 ar
     8    4    5 ar
     9    4    8 1
    10    5    6 ar
    11    6    7 ar
    12    6   40 1
    13    8    9 1
    14    8   18 1
    15    9   10 1
    16    9   41 1
    17    9   42 1
    18   10   17 1
    19   10   11 1
    20   10   43 1
    21   11   12 1
    22   11   44 1
    23   11   45 1
    24   12   13 1
    25   12   46 1
    26   12   47 1
    27   13   14 1
    28   13   15 1
    29   13   16 1
    30   16   17 1
    31   16   48 1
    32   16   49 1
    33   17   50 1
    34   17   51 1
    35   18   19 2
    36   19   20 1
    37   20   37 ar
    38   20   21 ar
    39   21   22 ar
    40   21   52 1
    41   22   35 ar
    42   22   23 ar
    43   23   24 ar
    44   23   53 1
    45   24   25 ar
    46   24   54 1
    47   25   26 1
    48   25   34 ar
    49   26   27 1
    50   27   28 1
    51   27   55 1
    52   27   56 1
    53   28   33 ar
    54   28   29 ar
    55   29   30 ar
    56   29   57 1
    57   30   31 ar
    58   30   58 1
    59   31   32 ar
    60   31   59 1
    61   32   33 ar
    62   32   60 1
    63   33   61 1
    64   34   35 ar
    65   35   36 ar
    66   36   37 ar
    67   36   62 1
    68   37   63 1
##########                 Name:                 1433
##########          Protonation:                   86
##########               SMILES:   c1ccc(cc1)COc2ccc3cc(ccc3n2)c4c5c(ncnc5n(n4)CC6CC[NH2+]CC6)N
##########            Long Name:   y-6-quinolyl)-1-(piperidin-1-ium-4-ylmethyl)pyrazolo[3,4-d]pyrimidin-4-amine
##########          FlexRecCode: 1
##########               Number:                  168
##########   Ligand Source File: /raid1/people/rgc/Examples/tdt/part3/ligand22set/build/ligand22set-0000001.db2.g
##########           GlobalRank: 6
##########                 Rank:                    3
##########               Setnum:                   65
##########             Matchnum:                64887
##########                Cloud:                    1
##########        Electrostatic:           -34.198944
##########        Van der Waals:           -25.412477
##########  Ligand Polar Desolv:            15.455450
########## Ligand Apolar Desolv:            -5.197328
##########      Internal Energy:             0.000000
##########      Receptor Energy: 0.0
########## Receptor Desolvation:             0.000000
########## Receptor Hydrophobic:             0.000000
##########         Total Energy: -49.35
##########        Ligand Charge:             1.000000
##########            Arbitrary:    +999.9990
##########     heavy atom count:   35
##########           pose count:    7
##########        Ligand Energy:             0.000000
# num electro vdwattr vdwrepu polsolv apolsol rdesolv rhydroe totalscore fullpol fullapo
#   1   -3.01   -2.26    0.45   -4.97    0.50    0.00    0.00      -9.29   -7.97    0.81
#   2    2.07   -1.80    0.32    2.31   -1.27    0.00    0.00       1.63    3.91   -2.15
#   3   -1.63   -1.70    0.41   -1.38   -0.21    0.00    0.00      -4.51   -2.84   -0.44
#   4    0.47   -1.58    0.31    1.45   -0.76    0.00    0.00      -0.12    3.36   -1.77
#   5    0.54   -1.53    0.26   -2.52    0.86    0.00    0.00      -2.39   -5.89    2.01
#   6   -0.40   -2.11    0.61    1.84   -1.53    0.00    0.00      -1.58    3.80   -3.16
#   7   -1.49   -2.40    0.52   -2.90    1.19    0.00    0.00      -5.07   -5.05    2.08
#   8   -0.25   -1.88    0.48   -1.76    0.47    0.00    0.00      -2.93   -3.88    1.04
#   9   -0.76   -1.17    0.16    0.75   -0.19    0.00    0.00      -1.21    1.73   -0.43
#  10    1.42   -0.65    0.03   -0.84   -0.06    0.00    0.00      -0.10   -2.09   -0.15
#  11    1.86   -0.57    0.03   -1.00   -0.06    0.00    0.00       0.26   -3.27   -0.21
#  12    0.12   -1.28    1.06    0.28   -0.15    0.00    0.00       0.02    0.86   -0.47
#  13   14.70   -2.68    2.70   -6.42    0.35    0.00    0.00       8.66  -16.22    0.89
#  14  -10.61   -0.03    0.00    5.33    0.18    0.00    0.00      -5.13   16.73    0.56
#  15  -15.95   -0.16    0.04    7.82    0.25    0.00    0.00      -8.00   18.00    0.57
#  16    0.12   -1.81    1.17    0.29   -0.22    0.00    0.00      -0.44    0.62   -0.47
#  17    2.39   -1.05    0.16   -1.63   -0.10    0.00    0.00      -0.24   -3.58   -0.22
#  18   -2.50   -4.73    8.21   -1.04    0.56    0.00    0.00       0.51   -2.18    1.18
#  19    2.32   -2.59    1.51    0.58   -0.37    0.00    0.00       1.46    1.19   -0.75
#  20   -0.80   -2.48    1.10   -0.19   -0.21    0.00    0.00      -2.59   -0.34   -0.38
#  21   -0.76   -2.20    0.43   -0.23   -0.19    0.00    0.00      -2.95   -0.37   -0.31
#  22   -1.60   -2.36    0.51   -0.64   -0.26    0.00    0.00      -4.35   -0.97   -0.40
#  23   -0.10   -3.34    1.04    0.02   -0.30    0.00    0.00      -2.68    0.03   -0.46
#  24   -0.71   -3.89    1.78   -0.74   -0.30    0.00    0.00      -3.85   -1.15   -0.46
#  25    3.32   -2.97    2.12    0.46   -0.42    0.00    0.00       2.51    0.71   -0.66
#  26   -2.43   -2.20    0.58   -0.29    0.53    0.00    0.00      -3.81   -0.46    0.85
#  27    0.92   -1.38    0.27    0.19   -0.08    0.00    0.00      -0.08    0.29   -0.12
#  28   -0.80   -2.28    1.07   -0.17   -0.25    0.00    0.00      -2.44   -0.26   -0.39
#  29   -1.10   -4.74   11.48   -0.19   -0.27    0.00    0.00       5.18   -0.32   -0.45
#  30   -1.38   -4.09    3.79   -0.31   -0.31    0.00    0.00      -2.30   -0.47   -0.47
#  31   -0.62   -2.66    0.63   -0.31   -0.32    0.00    0.00      -3.29   -0.45   -0.47
#  32   -0.58   -2.33    0.54   -0.29   -0.30    0.00    0.00      -2.95   -0.45   -0.47
#  33   -0.52   -2.25    0.56   -0.19   -0.29    0.00    0.00      -2.69   -0.30   -0.45
#  34   -6.38   -2.79    1.79   -0.79    1.71    0.00    0.00      -6.47   -1.30    2.80
#  35    2.72   -2.67    0.94    0.31   -0.44    0.00    0.00       0.85    0.51   -0.73
#  36   -1.46   -3.91    2.15   -0.46   -0.28    0.00    0.00      -3.95   -0.75   -0.46
#  37   -1.25   -4.00    4.46   -0.20   -0.26    0.00    0.00      -1.25   -0.34   -0.45
#  38    0.33   -0.05    0.00    2.79    0.35    0.00    0.00       3.42    4.64    0.59
#  39    2.18   -0.03    0.00    1.84    0.16    0.00    0.00       4.15    4.24    0.36
#  40   -0.98   -0.53    0.31    1.40   -0.11    0.00    0.00       0.10    3.61   -0.28
#  41   -0.56   -0.67    0.19    0.66   -0.13    0.00    0.00      -0.51    1.41   -0.28
#  42   -0.52   -0.46    0.13    0.66   -0.10    0.00    0.00      -0.30    1.88   -0.28
#  43   -1.11   -0.18    0.01    0.23   -0.05    0.00    0.00      -1.10    1.22   -0.28
#  44   -1.12   -0.24    0.03    0.53   -0.06    0.00    0.00      -0.86    2.48   -0.28
#  45   -1.03   -0.14    0.01    0.01   -0.03    0.00    0.00      -1.17    0.10   -0.22
#  46   -2.54   -0.32    0.22    0.85   -0.05    0.00    0.00      -1.85    4.79   -0.28
#  47   -3.36   -0.64    0.70    1.06   -0.08    0.00    0.00      -2.32    3.60   -0.28
#  48   -4.28   -1.25    2.83    2.63   -0.12    0.00    0.00      -0.19    6.03   -0.28
#  49   -3.69   -0.58    0.23    1.69   -0.12    0.00    0.00      -2.46    4.00   -0.28
#  50   -1.47   -0.36    0.11    0.68   -0.09    0.00    0.00      -1.13    2.08   -0.28
#  51   -1.81   -0.79    0.86    1.23   -0.11    0.00    0.00      -0.62    3.23   -0.28
#  52    1.28   -0.60    0.33    0.84   -0.12    0.00    0.00       1.72    1.70   -0.24
#  53   -0.04   -0.83    0.22    1.72   -0.18    0.00    0.00       0.90    2.72   -0.28
#  54   -0.02   -1.27    1.03    0.82   -0.18    0.00    0.00       0.38    1.27   -0.28
#  55    0.55   -0.52    0.22    0.08   -0.14    0.00    0.00       0.18    0.15   -0.28
#  56    0.70   -0.53    0.22    0.09   -0.13    0.00    0.00       0.35    0.18   -0.28
#  57    1.84   -1.07    1.37    0.31   -0.15    0.00    0.00       2.30    0.59   -0.28
#  58    1.80   -1.02    0.47    0.57   -0.19    0.00    0.00       1.64    0.85   -0.28
#  59    0.42   -0.73    0.44    0.46   -0.15    0.00    0.00       0.44    0.86   -0.28
#  60    0.52   -0.60    0.28    0.41   -0.14    0.00    0.00       0.46    0.80   -0.28
#  61    0.64   -0.55    0.23    0.28   -0.15    0.00    0.00       0.44    0.51   -0.28
#  62    0.35   -2.13    9.87    0.59   -0.17    0.00    0.00       8.50    0.95   -0.28
#  63    1.84   -1.15    2.36    0.87   -0.15    0.00    0.00       3.77    1.63   -0.28

@<TRIPOS>MOLECULE
             1433        86
   63    68     0     0     0



@<TRIPOS>ATOM
      1 N1         19.8942    13.2163    64.0583 N.pl3      1          -0.8249
      2 C1         21.0542    13.9271    63.8179 C.ar       1           0.5230
      3 C2         21.0383    15.3303    63.7529 C.ar       1          -0.3257
      4 C3         22.2478    16.0059    63.5059 C.ar       1           0.3748
      5 N2         23.3592    15.2878    63.3445 N.ar       1          -0.5814
      6 C4         23.3262    13.9753    63.4143 C.ar       1           0.3909
      7 N3         22.2142    13.3007    63.6478 N.ar       1          -0.5996
      8 N4         21.9614    17.3386    63.4916 N.pl3      1          -0.3857
      9 C5         22.9340    18.4108    63.2668 C.3        1           0.1476
     10 C6         23.0211    18.7147    61.7699 C.3        1          -0.1199
     11 C7         24.3325    19.4472    61.4715 C.3        1          -0.1423
     12 C8         24.3768    19.8182    59.9876 C.3        1          -0.0051
     13 N5         23.2422    20.6913    59.6637 N.4        1          -0.5050
     14 H1         23.2673    21.5076    60.2563 H          1           0.4290
     15 H2         23.3035    20.9763    58.6977 H          1           0.4324
     16 C9         21.9818    19.9708    59.8792 C.3        1          -0.0045
     17 C10        21.8452    19.6055    61.3589 C.3        1          -0.1410
     18 N6         20.5943    17.5233    63.7245 N.2        1          -0.2373
     19 C11        20.0081    16.3603    63.8849 C.2        1           0.1865
     20 C12        18.5678    16.1324    64.1500 C.ar       1          -0.0463
     21 C13        18.1757    15.4884    65.3107 C.ar       1          -0.0608
     22 C14        16.8120    15.2768    65.5540 C.ar       1          -0.1358
     23 C15        16.3723    14.6251    66.7250 C.ar       1          -0.0232
     24 C16        15.0322    14.4507    66.9022 C.ar       1          -0.1699
     25 C17        14.1343    14.9149    65.9330 C.ar       1           0.3678
     26 O1         12.8043    14.7345    66.1233 O.3        1          -0.2943
     27 C18        11.9305    15.2263    65.1051 C.3        1           0.1145
     28 C19        11.6976    14.1475    64.0789 C.ar       1          -0.1052
     29 C20        12.5395    14.0382    62.9879 C.ar       1          -0.0946
     30 C21        12.3258    13.0487    62.0466 C.ar       1          -0.1225
     31 C22        11.2706    12.1686    62.1961 C.ar       1          -0.1060
     32 C23        10.4294    12.2772    63.2878 C.ar       1          -0.1223
     33 C24        10.6455    13.2640    64.2315 C.ar       1          -0.0945
     34 N7         14.5499    15.5222    64.8426 N.ar       1          -0.5422
     35 C25        15.8523    15.7231    64.6118 C.ar       1           0.1857
     36 C26        16.2839    16.3738    63.4422 C.ar       1          -0.0958
     37 C27        17.6096    16.5762    63.2250 C.ar       1          -0.0640
     38 H3         19.9200    12.2478    64.1067 H          1           0.4149
     39 H4         19.0546    13.6859    64.1825 H          1           0.4151
     40 H5         24.2461    13.4262    63.2780 H          1           0.2063
     41 H6         22.6175    19.3063    63.8015 H          1           0.1061
     42 H7         23.9119    18.0965    63.6313 H          1           0.1046
     43 H8         22.9866    17.7825    61.2060 H          1           0.0970
     44 H9         24.3886    20.3532    62.0750 H          1           0.0995
     45 H10        25.1746    18.7976    61.7096 H          1           0.1055
     46 H11        25.3093    20.3399    59.7717 H          1           0.1342
     47 H12        24.3207    18.9118    59.3851 H          1           0.1280
     48 H13        21.1461    20.6049    59.5833 H          1           0.1367
     49 H14        21.9767    19.0609    59.2789 H          1           0.1306
     50 H15        20.9096    19.0689    61.5165 H          1           0.1172
     51 H16        21.8498    20.5147    61.9602 H          1           0.0949
     52 H17        18.9146    15.1515    66.0228 H          1           0.1389
     53 H18        17.0790    14.2732    67.4619 H          1           0.1524
     54 H19        14.6636    13.9551    67.7881 H          1           0.1521
     55 H20        10.9788    15.5150    65.5513 H          1           0.0791
     56 H21        12.3843    16.0931    64.6246 H          1           0.0791
     57 H22        13.3639    14.7259    62.8708 H          1           0.1237
     58 H23        12.9831    12.9636    61.1938 H          1           0.1269
     59 H24        11.1030    11.3955    61.4608 H          1           0.1264
     60 H25         9.6047    11.5896    63.4048 H          1           0.1270
     61 H26         9.9905    13.3468    65.0861 H          1           0.1239
     62 H27        15.5602    16.7173    62.7178 H          1           0.1435
     63 H28        17.9309    17.0814    62.3262 H          1           0.1341
@<TRIPOS>BOND
     1    1    2 1
     2    1   38 1
     3    1   39 1
     4    2    7 ar
     5    2    3 ar
     6    3   19 1
     7    3    4 ar
     8    4    5 ar
     9    4    8 1
    10    5    6 ar
    11    6    7 ar
    12    6   40 1
    13    8    9 1
    14    8   18 1
    15    9   10 1
    16    9   41 1
    17    9   42 1
    18   10   17 1
    19   10   11 1
    20   10   43 1
    21   11   12 1
    22   11   44 1
    23   11   45 1
    24   12   13 1
    25   12   46 1
    26   12   47 1
    27   13   14 1
    28   13   15 1
    29   13   16 1
    30   16   17 1
    31   16   48 1
    32   16   49 1
    33   17   50 1
    34   17   51 1
    35   18   19 2
    36   19   20 1
    37   20   37 ar
    38   20   21 ar
    39   21   22 ar
    40   21   52 1
    41   22   35 ar
    42   22   23 ar
    43   23   24 ar
    44   23   53 1
    45   24   25 ar
    46   24   54 1
    47   25   26 1
    48   25   34 ar
    49   26   27 1
    50   27   28 1
    51   27   55 1
    52   27   56 1
    53   28   33 ar
    54   28   29 ar
    55   29   30 ar
    56   29   57 1
    57   30   31 ar
    58   30   58 1
    59   31   32 ar
    60   31   59 1
    61   32   33 ar
    62   32   60 1
    63   33   61 1
    64   34   35 ar
    65   35   36 ar
    66   36   37 ar
    67   36   62 1
    68   37   63 1
##########                 Name:                 1433
##########          Protonation:                   86
##########               SMILES:   c1ccc(cc1)COc2ccc3cc(ccc3n2)c4c5c(ncnc5n(n4)CC6CC[NH2+]CC6)N
##########            Long Name:   y-6-quinolyl)-1-(piperidin-1-ium-4-ylmethyl)pyrazolo[3,4-d]pyrimidin-4-amine
##########          FlexRecCode: 1
##########               Number:                  169
##########   Ligand Source File: /raid1/people/rgc/Examples/tdt/part3/ligand22set/build/ligand22set-0000001.db2.g
##########           GlobalRank: 6
##########                 Rank:                    2
##########               Setnum:                  307
##########             Matchnum:                64887
##########                Cloud:                    1
##########        Electrostatic:           -34.448673
##########        Van der Waals:           -21.278469
##########  Ligand Polar Desolv:            12.080794
########## Ligand Apolar Desolv:            -5.321458
##########      Internal Energy:             0.000000
##########      Receptor Energy: 0.0
########## Receptor Desolvation:             0.000000
########## Receptor Hydrophobic:             0.000000
##########         Total Energy: -48.97
##########        Ligand Charge:             1.000000
##########            Arbitrary:    +999.9990
##########     heavy atom count:   35
##########           pose count:    7
##########        Ligand Energy:             0.000000
# num electro vdwattr vdwrepu polsolv apolsol rdesolv rhydroe totalscore fullpol fullapo
#   1   -3.01   -2.26    0.45   -4.97    0.50    0.00    0.00      -9.29   -7.97    0.81
#   2    2.07   -1.80    0.32    2.31   -1.27    0.00    0.00       1.63    3.91   -2.15
#   3   -1.63   -1.70    0.41   -1.38   -0.21    0.00    0.00      -4.51   -2.84   -0.44
#   4    0.47   -1.58    0.31    1.45   -0.76    0.00    0.00      -0.12    3.36   -1.77
#   5    0.54   -1.53    0.26   -2.52    0.86    0.00    0.00      -2.39   -5.89    2.01
#   6   -0.40   -2.11    0.61    1.84   -1.53    0.00    0.00      -1.58    3.80   -3.16
#   7   -1.49   -2.40    0.52   -2.90    1.19    0.00    0.00      -5.07   -5.05    2.08
#   8   -0.25   -1.88    0.48   -1.76    0.47    0.00    0.00      -2.93   -3.88    1.04
#   9   -0.76   -1.17    0.16    0.75   -0.19    0.00    0.00      -1.21    1.73   -0.43
#  10    1.42   -0.65    0.03   -0.84   -0.06    0.00    0.00      -0.10   -2.09   -0.15
#  11    1.61   -0.62    0.06   -1.06   -0.07    0.00    0.00      -0.08   -3.27   -0.21
#  12    0.10   -1.52    0.73    0.33   -0.18    0.00    0.00      -0.53    0.86   -0.47
#  13   13.14   -3.12    8.13   -5.28    0.29    0.00    0.00      13.16  -16.22    0.89
#  14   -6.79   -0.02    0.00    2.67    0.09    0.00    0.00      -4.05   16.73    0.56
#  15  -19.94   -0.59    1.33    6.51    0.21    0.00    0.00     -12.50   18.00    0.57
#  16    0.11   -1.26    0.69    0.22   -0.17    0.00    0.00      -0.41    0.62   -0.47
#  17    2.23   -0.86    0.16   -1.30   -0.08    0.00    0.00       0.15   -3.58   -0.22
#  18   -2.50   -4.73    8.21   -1.04    0.56    0.00    0.00       0.51   -2.18    1.18
#  19    2.32   -2.59    1.51    0.58   -0.37    0.00    0.00       1.46    1.19   -0.75
#  20   -0.80   -2.48    1.10   -0.19   -0.21    0.00    0.00      -2.59   -0.34   -0.38
#  21   -0.76   -2.20    0.43   -0.23   -0.19    0.00    0.00      -2.95   -0.37   -0.31
#  22   -1.60   -2.36    0.51   -0.64   -0.26    0.00    0.00      -4.35   -0.97   -0.40
#  23   -0.10   -3.34    1.04    0.02   -0.30    0.00    0.00      -2.68    0.03   -0.46
#  24   -0.71   -3.89    1.78   -0.74   -0.30    0.00    0.00      -3.85   -1.15   -0.46
#  25    3.32   -2.97    2.12    0.46   -0.42    0.00    0.00       2.51    0.71   -0.66
#  26   -2.43   -2.20    0.58   -0.29    0.53    0.00    0.00      -3.81   -0.46    0.85
#  27    0.92   -1.38    0.27    0.19   -0.08    0.00    0.00      -0.08    0.29   -0.12
#  28   -0.80   -2.28    1.07   -0.17   -0.25    0.00    0.00      -2.44   -0.26   -0.39
#  29   -1.10   -4.74   11.48   -0.19   -0.27    0.00    0.00       5.18   -0.32   -0.45
#  30   -1.38   -4.09    3.79   -0.31   -0.31    0.00    0.00      -2.30   -0.47   -0.47
#  31   -0.62   -2.66    0.63   -0.31   -0.32    0.00    0.00      -3.29   -0.45   -0.47
#  32   -0.58   -2.33    0.54   -0.29   -0.30    0.00    0.00      -2.95   -0.45   -0.47
#  33   -0.52   -2.25    0.56   -0.19   -0.29    0.00    0.00      -2.69   -0.30   -0.45
#  34   -6.38   -2.79    1.79   -0.79    1.71    0.00    0.00      -6.47   -1.30    2.80
#  35    2.72   -2.67    0.94    0.31   -0.44    0.00    0.00       0.85    0.51   -0.73
#  36   -1.46   -3.91    2.15   -0.46   -0.28    0.00    0.00      -3.95   -0.75   -0.46
#  37   -1.25   -4.00    4.46   -0.20   -0.26    0.00    0.00      -1.25   -0.34   -0.45
#  38    0.33   -0.05    0.00    2.79    0.35    0.00    0.00       3.42    4.64    0.59
#  39    2.18   -0.03    0.00    1.84    0.16    0.00    0.00       4.15    4.24    0.36
#  40   -0.98   -0.53    0.31    1.40   -0.11    0.00    0.00       0.10    3.61   -0.28
#  41   -0.56   -0.67    0.19    0.66   -0.13    0.00    0.00      -0.51    1.41   -0.28
#  42   -0.52   -0.46    0.13    0.66   -0.10    0.00    0.00      -0.30    1.88   -0.28
#  43   -1.30   -0.20    0.01    0.28   -0.06    0.00    0.00      -1.27    1.22   -0.28
#  44   -0.89   -0.13    0.00    0.29   -0.03    0.00    0.00      -0.76    2.48   -0.28
#  45   -0.88   -0.28    0.09    0.02   -0.05    0.00    0.00      -1.10    0.10   -0.22
#  46   -2.14   -0.58    0.34    1.72   -0.10    0.00    0.00      -0.76    4.79   -0.28
#  47   -3.15   -0.65    0.35    1.57   -0.12    0.00    0.00      -2.00    3.60   -0.28
#  48   -2.85   -0.31    0.09    1.46   -0.07    0.00    0.00      -1.67    6.03   -0.28
#  49   -3.96   -0.60    0.36    1.47   -0.10    0.00    0.00      -2.82    4.00   -0.28
#  50   -2.33   -0.84    1.65    0.64   -0.09    0.00    0.00      -0.96    2.08   -0.28
#  51   -1.00   -0.21    0.02    0.64   -0.06    0.00    0.00      -0.60    3.23   -0.28
#  52    1.28   -0.60    0.33    0.84   -0.12    0.00    0.00       1.72    1.70   -0.24
#  53   -0.04   -0.83    0.22    1.72   -0.18    0.00    0.00       0.90    2.72   -0.28
#  54   -0.02   -1.27    1.03    0.82   -0.18    0.00    0.00       0.38    1.27   -0.28
#  55    0.55   -0.52    0.22    0.08   -0.14    0.00    0.00       0.18    0.15   -0.28
#  56    0.70   -0.53    0.22    0.09   -0.13    0.00    0.00       0.35    0.18   -0.28
#  57    1.84   -1.07    1.37    0.31   -0.15    0.00    0.00       2.30    0.59   -0.28
#  58    1.80   -1.02    0.47    0.57   -0.19    0.00    0.00       1.64    0.85   -0.28
#  59    0.42   -0.74    0.44    0.46   -0.15    0.00    0.00       0.44    0.86   -0.28
#  60    0.52   -0.60    0.28    0.41   -0.14    0.00    0.00       0.46    0.80   -0.28
#  61    0.64   -0.55    0.23    0.28   -0.15    0.00    0.00       0.44    0.51   -0.28
#  62    0.35   -2.13    9.87    0.59   -0.17    0.00    0.00       8.50    0.95   -0.28
#  63    1.84   -1.15    2.36    0.87   -0.15    0.00    0.00       3.77    1.63   -0.28

@<TRIPOS>MOLECULE
             1433        86
   63    68     0     0     0



@<TRIPOS>ATOM
      1 N1         19.8942    13.2163    64.0583 N.pl3      1          -0.8249
      2 C1         21.0542    13.9271    63.8179 C.ar       1           0.5230
      3 C2         21.0383    15.3303    63.7529 C.ar       1          -0.3257
      4 C3         22.2478    16.0059    63.5059 C.ar       1           0.3748
      5 N2         23.3592    15.2878    63.3445 N.ar       1          -0.5814
      6 C4         23.3262    13.9753    63.4143 C.ar       1           0.3909
      7 N3         22.2142    13.3007    63.6478 N.ar       1          -0.5996
      8 N4         21.9614    17.3386    63.4916 N.pl3      1          -0.3857
      9 C5         22.9340    18.4108    63.2668 C.3        1           0.1476
     10 C6         23.0211    18.7147    61.7699 C.3        1          -0.1199
     11 C7         23.9205    17.6790    61.0886 C.3        1          -0.1423
     12 C8         24.0673    18.0347    59.6075 C.3        1          -0.0051
     13 N5         24.6682    19.3676    59.4779 N.4        1          -0.5050
     14 H1         25.5555    19.3836    59.9582 H          1           0.4290
     15 H2         24.8118    19.5772    58.5014 H          1           0.4324
     16 C9         23.7771    20.3750    60.0656 C.3        1          -0.0045
     17 C10        23.6190    20.1095    61.5644 C.3        1          -0.1410
     18 N6         20.5943    17.5233    63.7245 N.2        1          -0.2373
     19 C11        20.0081    16.3603    63.8849 C.2        1           0.1865
     20 C12        18.5678    16.1324    64.1500 C.ar       1          -0.0463
     21 C13        18.1757    15.4884    65.3107 C.ar       1          -0.0608
     22 C14        16.8120    15.2768    65.5540 C.ar       1          -0.1358
     23 C15        16.3723    14.6251    66.7250 C.ar       1          -0.0232
     24 C16        15.0322    14.4507    66.9022 C.ar       1          -0.1699
     25 C17        14.1343    14.9149    65.9330 C.ar       1           0.3678
     26 O1         12.8043    14.7345    66.1233 O.3        1          -0.2943
     27 C18        11.9305    15.2263    65.1051 C.3        1           0.1145
     28 C19        11.6976    14.1475    64.0789 C.ar       1          -0.1052
     29 C20        12.5395    14.0382    62.9879 C.ar       1          -0.0946
     30 C21        12.3258    13.0487    62.0466 C.ar       1          -0.1225
     31 C22        11.2706    12.1683    62.1964 C.ar       1          -0.1060
     32 C23        10.4294    12.2772    63.2878 C.ar       1          -0.1223
     33 C24        10.6455    13.2640    64.2315 C.ar       1          -0.0945
     34 N7         14.5499    15.5222    64.8426 N.ar       1          -0.5422
     35 C25        15.8523    15.7231    64.6118 C.ar       1           0.1857
     36 C26        16.2839    16.3738    63.4422 C.ar       1          -0.0958
     37 C27        17.6096    16.5762    63.2250 C.ar       1          -0.0640
     38 H3         19.9200    12.2478    64.1067 H          1           0.4149
     39 H4         19.0546    13.6859    64.1825 H          1           0.4151
     40 H5         24.2461    13.4262    63.2780 H          1           0.2063
     41 H6         22.6175    19.3063    63.8015 H          1           0.1061
     42 H7         23.9119    18.0965    63.6313 H          1           0.1046
     43 H8         22.0238    18.6775    61.3316 H          1           0.0970
     44 H9         24.9021    17.6815    61.5625 H          1           0.0995
     45 H10        23.4726    16.6899    61.1827 H          1           0.1055
     46 H11        24.7069    17.2992    59.1195 H          1           0.1342
     47 H12        23.0854    18.0318    59.1345 H          1           0.1280
     48 H13        24.2024    21.3674    59.9159 H          1           0.1367
     49 H14        22.8012    20.3222    59.5830 H          1           0.1306
     50 H15        22.9555    20.8574    61.9986 H          1           0.1172
     51 H16        24.5943    20.1623    62.0483 H          1           0.0949
     52 H17        18.9146    15.1515    66.0228 H          1           0.1389
     53 H18        17.0790    14.2732    67.4619 H          1           0.1524
     54 H19        14.6636    13.9551    67.7881 H          1           0.1521
     55 H20        10.9788    15.5150    65.5513 H          1           0.0791
     56 H21        12.3843    16.0931    64.6246 H          1           0.0791
     57 H22        13.3639    14.7259    62.8708 H          1           0.1237
     58 H23        12.9831    12.9636    61.1938 H          1           0.1269
     59 H24        11.1033    11.3956    61.4606 H          1           0.1264
     60 H25         9.6047    11.5896    63.4048 H          1           0.1270
     61 H26         9.9905    13.3468    65.0861 H          1           0.1239
     62 H27        15.5602    16.7173    62.7178 H          1           0.1435
     63 H28        17.9309    17.0814    62.3262 H          1           0.1341
@<TRIPOS>BOND
     1    1    2 1
     2    1   38 1
     3    1   39 1
     4    2    7 ar
     5    2    3 ar
     6    3   19 1
     7    3    4 ar
     8    4    5 ar
     9    4    8 1
    10    5    6 ar
    11    6    7 ar
    12    6   40 1
    13    8    9 1
    14    8   18 1
    15    9   10 1
    16    9   41 1
    17    9   42 1
    18   10   17 1
    19   10   11 1
    20   10   43 1
    21   11   12 1
    22   11   44 1
    23   11   45 1
    24   12   13 1
    25   12   46 1
    26   12   47 1
    27   13   14 1
    28   13   15 1
    29   13   16 1
    30   16   17 1
    31   16   48 1
    32   16   49 1
    33   17   50 1
    34   17   51 1
    35   18   19 2
    36   19   20 1
    37   20   37 ar
    38   20   21 ar
    39   21   22 ar
    40   21   52 1
    41   22   35 ar
    42   22   23 ar
    43   23   24 ar
    44   23   53 1
    45   24   25 ar
    46   24   54 1
    47   25   26 1
    48   25   34 ar
    49   26   27 1
    50   27   28 1
    51   27   55 1
    52   27   56 1
    53   28   33 ar
    54   28   29 ar
    55   29   30 ar
    56   29   57 1
    57   30   31 ar
    58   30   58 1
    59   31   32 ar
    60   31   59 1
    61   32   33 ar
    62   32   60 1
    63   33   61 1
    64   34   35 ar
    65   35   36 ar
    66   36   37 ar
    67   36   62 1
    68   37   63 1
##########                 Name:                 1433
##########          Protonation:                   86
##########               SMILES:   c1ccc(cc1)COc2ccc3cc(ccc3n2)c4c5c(ncnc5n(n4)CC6CC[NH2+]CC6)N
##########            Long Name:   y-6-quinolyl)-1-(piperidin-1-ium-4-ylmethyl)pyrazolo[3,4-d]pyrimidin-4-amine
##########          FlexRecCode: 1
##########               Number:                  170
##########   Ligand Source File: /raid1/people/rgc/Examples/tdt/part3/ligand22set/build/ligand22set-0000001.db2.g
##########           GlobalRank: 6
##########                 Rank:                    1
##########               Setnum:                   19
##########             Matchnum:                67876
##########                Cloud:                    1
##########        Electrostatic:           -32.390709
##########        Van der Waals:           -23.936964
##########  Ligand Polar Desolv:            14.613971
########## Ligand Apolar Desolv:            -5.405928
##########      Internal Energy:             0.000000
##########      Receptor Energy: 0.0
########## Receptor Desolvation:             0.000000
########## Receptor Hydrophobic:             0.000000
##########         Total Energy: -47.12
##########        Ligand Charge:             1.000000
##########            Arbitrary:    +999.9990
##########     heavy atom count:   35
##########           pose count:    7
##########        Ligand Energy:             0.000000
# num electro vdwattr vdwrepu polsolv apolsol rdesolv rhydroe totalscore fullpol fullapo
#   1   -1.33   -3.50    1.65   -5.16    0.52    0.00    0.00      -7.82   -7.97    0.81
#   2    2.13   -2.43    0.59    2.45   -1.35    0.00    0.00       1.40    3.91   -2.15
#   3   -1.30   -1.70    0.34   -1.62   -0.25    0.00    0.00      -4.53   -2.84   -0.44
#   4    0.38   -1.67    0.40    1.55   -0.82    0.00    0.00      -0.16    3.36   -1.77
#   5    0.63   -2.00    0.49   -2.79    0.95    0.00    0.00      -2.71   -5.89    2.01
#   6   -0.15   -4.11    3.45    2.06   -1.71    0.00    0.00      -0.46    3.80   -3.16
#   7   -3.49   -4.77    3.37   -3.11    1.28    0.00    0.00      -6.72   -5.05    2.08
#   8    0.00   -1.40    0.20   -1.63    0.44    0.00    0.00      -2.40   -3.88    1.04
#   9   -0.69   -0.78    0.07    0.68   -0.17    0.00    0.00      -0.89    1.73   -0.43
#  10    1.25   -0.62    0.03   -0.84   -0.06    0.00    0.00      -0.25   -2.09   -0.15
#  11    2.01   -0.55    0.03   -1.03   -0.07    0.00    0.00       0.39   -3.27   -0.21
#  12    0.13   -1.48    1.17    0.32   -0.17    0.00    0.00      -0.03    0.86   -0.47
#  13   12.56   -1.61    0.49   -6.33    0.35    0.00    0.00       5.46  -16.22    0.89
#  14   -8.76   -0.03    0.00    4.65    0.16    0.00    0.00      -3.98   16.73    0.56
#  15  -13.35   -0.07    0.00    7.03    0.22    0.00    0.00      -6.16   18.00    0.57
#  16    0.09   -1.33    0.32    0.28   -0.21    0.00    0.00      -0.85    0.62   -0.47
#  17    1.63   -1.15    0.22   -1.57   -0.10    0.00    0.00      -0.97   -3.58   -0.22
#  18   -1.32   -1.88    0.51   -0.98    0.53    0.00    0.00      -3.15   -2.18    1.18
#  19    1.45   -1.71    0.35    0.58   -0.36    0.00    0.00       0.31    1.19   -0.75
#  20   -0.59   -1.84    0.31   -0.19   -0.21    0.00    0.00      -2.52   -0.34   -0.38
#  21   -0.66   -2.08    0.38   -0.22   -0.19    0.00    0.00      -2.78   -0.37   -0.31
#  22   -1.53   -2.38    0.61   -0.63   -0.26    0.00    0.00      -4.19   -0.97   -0.40
#  23   -0.13   -3.16    0.90    0.02   -0.30    0.00    0.00      -2.67    0.03   -0.46
#  24   -1.02   -3.33    1.11   -0.74   -0.30    0.00    0.00      -4.28   -1.15   -0.46
#  25    3.65   -2.81    2.03    0.46   -0.43    0.00    0.00       2.90    0.71   -0.66
#  26   -2.62   -1.88    0.37   -0.30    0.55    0.00    0.00      -3.88   -0.46    0.85
#  27    0.96   -1.47    0.34    0.19   -0.08    0.00    0.00      -0.06    0.29   -0.12
#  28   -0.84   -2.39    1.27   -0.17   -0.25    0.00    0.00      -2.37   -0.26   -0.39
#  29   -1.13   -5.74   21.46   -0.19   -0.27    0.00    0.00      14.13   -0.32   -0.45
#  30   -1.25   -4.51    5.92   -0.31   -0.31    0.00    0.00      -0.47   -0.47   -0.47
#  31   -0.54   -2.71    0.73   -0.31   -0.32    0.00    0.00      -3.15   -0.45   -0.47
#  32   -0.57   -2.38    0.66   -0.29   -0.30    0.00    0.00      -2.88   -0.45   -0.47
#  33   -0.51   -2.13    0.47   -0.19   -0.29    0.00    0.00      -2.64   -0.30   -0.45
#  34   -6.39   -3.18    2.76   -0.78    1.67    0.00    0.00      -5.91   -1.30    2.80
#  35    2.54   -2.91    1.46    0.30   -0.43    0.00    0.00       0.96    0.51   -0.73
#  36   -1.25   -3.89    2.16   -0.45   -0.28    0.00    0.00      -3.71   -0.75   -0.46
#  37   -0.87   -3.14    1.65   -0.19   -0.26    0.00    0.00      -2.80   -0.34   -0.45
#  38   -1.82   -0.12    0.01    2.91    0.37    0.00    0.00       1.36    4.64    0.59
#  39    1.36   -0.04    0.00    2.11    0.18    0.00    0.00       3.61    4.24    0.36
#  40   -1.04   -1.53    3.81    1.79   -0.14    0.00    0.00       2.88    3.61   -0.28
#  41   -0.42   -0.42    0.08    0.50   -0.10    0.00    0.00      -0.35    1.41   -0.28
#  42   -0.56   -0.18    0.01    0.33   -0.05    0.00    0.00      -0.44    1.88   -0.28
#  43   -1.09   -0.26    0.05    0.31   -0.07    0.00    0.00      -1.05    1.22   -0.28
#  44   -1.08   -0.14    0.01    0.34   -0.04    0.00    0.00      -0.92    2.48   -0.28
#  45   -1.30   -0.16    0.01    0.02   -0.04    0.00    0.00      -1.47    0.10   -0.22
#  46   -4.01   -0.96    3.08    1.21   -0.07    0.00    0.00      -0.75    4.79   -0.28
#  47   -3.97   -0.73    0.65    1.45   -0.11    0.00    0.00      -2.72    3.60   -0.28
#  48   -2.93   -0.81    0.67    2.74   -0.13    0.00    0.00      -0.46    6.03   -0.28
#  49   -2.86   -0.34    0.05    1.50   -0.10    0.00    0.00      -1.76    4.00   -0.28
#  50   -0.72   -0.52    0.34    0.74   -0.10    0.00    0.00      -0.27    2.08   -0.28
#  51   -1.05   -0.59    0.24    1.24   -0.11    0.00    0.00      -0.26    3.23   -0.28
#  52    1.16   -0.59    0.31    0.83   -0.12    0.00    0.00       1.58    1.70   -0.24
#  53    0.20   -0.79    0.19    1.71   -0.18    0.00    0.00       1.13    2.72   -0.28
#  54    0.37   -0.99    0.53    0.78   -0.17    0.00    0.00       0.51    1.27   -0.28
#  55    0.58   -0.63    0.41    0.08   -0.14    0.00    0.00       0.29    0.15   -0.28
#  56    0.67   -0.61    0.26    0.09   -0.14    0.00    0.00       0.28    0.18   -0.28
#  57    2.00   -1.36    2.96    0.32   -0.15    0.00    0.00       3.77    0.59   -0.28
#  58    1.50   -1.20    1.10    0.56   -0.18    0.00    0.00       1.77    0.85   -0.28
#  59    0.20   -0.81    0.78    0.44   -0.14    0.00    0.00       0.47    0.86   -0.28
#  60    0.54   -0.74    0.65    0.41   -0.14    0.00    0.00       0.72    0.80   -0.28
#  61    0.60   -0.46    0.16    0.27   -0.15    0.00    0.00       0.42    0.51   -0.28
#  62    1.04   -1.56    2.21    0.60   -0.18    0.00    0.00       2.11    0.95   -0.28
#  63    1.14   -0.96    1.40    0.82   -0.14    0.00    0.00       2.25    1.63   -0.28

@<TRIPOS>MOLECULE
             1433        86
   63    68     0     0     0



@<TRIPOS>ATOM
      1 N1         19.8582    12.5707    64.4091 N.pl3      1          -0.8249
      2 C1         21.0889    13.1168    64.0995 C.ar       1           0.5230
      3 C2         21.2138    14.4814    63.7902 C.ar       1          -0.3257
      4 C3         22.4903    14.9873    63.4825 C.ar       1           0.3748
      5 N2         23.5291    14.1520    63.4973 N.ar       1          -0.5814
      6 C4         23.3645    12.8816    63.7933 C.ar       1           0.3909
      7 N3         22.1853    12.3653    64.0920 N.ar       1          -0.5996
      8 N4         22.3378    16.3170    63.2236 N.pl3      1          -0.3857
      9 C5         23.4174    17.2372    62.8581 C.3        1           0.1476
     10 C6         22.9664    18.1131    61.6875 C.3        1          -0.1199
     11 C7         24.1934    18.7098    60.9919 C.3        1          -0.1423
     12 C8         23.7332    19.6469    59.8732 C.3        1          -0.0051
     13 N5         22.9166    20.7271    60.4396 N.4        1          -0.5050
     14 H1         23.4487    21.2155    61.1443 H          1           0.4290
     15 H2         22.6586    21.3717    59.7075 H          1           0.4324
     16 C9         21.7023    20.1680    61.0456 C.3        1          -0.0045
     17 C10        22.0842    19.2510    62.2095 C.3        1          -0.1410
     18 N6         20.9900    16.6661    63.3607 N.2        1          -0.2373
     19 C11        20.2874    15.6096    63.6956 C.2        1           0.1865
     20 C12        18.8251    15.5670    63.9332 C.ar       1          -0.0463
     21 C13        18.3404    15.1786    65.1701 C.ar       1          -0.0608
     22 C14        16.9564    15.1411    65.3867 C.ar       1          -0.1358
     23 C15        16.4233    14.7514    66.6330 C.ar       1          -0.0232
     24 C16        15.0683    14.7363    66.7792 C.ar       1          -0.1699
     25 C17        14.2469    15.1022    65.7056 C.ar       1           0.3678
     26 O1         12.9009    15.0826    65.8662 O.3        1          -0.2943
     27 C18        12.1076    15.4646    64.7406 C.3        1           0.1145
     28 C19        11.7965    14.2469    63.9089 C.ar       1          -0.1052
     29 C20        12.6522    13.8679    62.8915 C.ar       1          -0.0946
     30 C21        12.3668    12.7510    62.1286 C.ar       1          -0.1225
     31 C22        11.2259    12.0130    62.3833 C.ar       1          -0.1060
     32 C23        10.3709    12.3916    63.4013 C.ar       1          -0.1223
     33 C24        10.6584    13.5060    64.1671 C.ar       1          -0.0945
     34 N7         14.7494    15.4649    64.5453 N.ar       1          -0.5422
     35 C25        16.0710    15.4999    64.3401 C.ar       1           0.1857
     36 C26        16.5960    15.8895    63.0950 C.ar       1          -0.0958
     37 C27        17.9405    15.9263    62.9040 C.ar       1          -0.0640
     38 H3         19.7868    11.6281    64.6266 H          1           0.4149
     39 H4         19.0663    13.1307    64.4128 H          1           0.4151
     40 H5         24.2288    12.2341    63.7951 H          1           0.2063
     41 H6         23.6607    17.8693    63.7122 H          1           0.1061
     42 H7         24.2985    16.6660    62.5660 H          1           0.1046
     43 H8         22.4009    17.5099    60.9775 H          1           0.0970
     44 H9         24.7854    19.2702    61.7156 H          1           0.0995
     45 H10        24.7980    17.9076    60.5691 H          1           0.1055
     46 H11        24.6044    20.0733    59.3758 H          1           0.1342
     47 H12        23.1415    19.0857    59.1501 H          1           0.1280
     48 H13        21.0740    20.9791    61.4138 H          1           0.1367
     49 H14        21.1539    19.5956    60.2975 H          1           0.1306
     50 H15        21.1812    18.8355    62.6570 H          1           0.1172
     51 H16        22.6325    19.8224    62.9584 H          1           0.0949
     52 H17        19.0231    14.9066    65.9616 H          1           0.1389
     53 H18        17.0718    14.4721    67.4502 H          1           0.1524
     54 H19        14.6289    14.4424    67.7209 H          1           0.1521
     55 H20        11.1776    15.9149    65.0876 H          1           0.0791
     56 H21        12.6576    16.1863    64.1367 H          1           0.0791
     57 H22        13.5435    14.4444    62.6925 H          1           0.1237
     58 H23        13.0349    12.4552    61.3333 H          1           0.1269
     59 H24        11.0027    11.1408    61.7868 H          1           0.1264
     60 H25         9.4793    11.8152    63.6001 H          1           0.1270
     61 H26         9.9922    13.7997    64.9647 H          1           0.1239
     62 H27        15.9294    16.1645    62.2909 H          1           0.1435
     63 H28        18.3341    16.2318    61.9459 H          1           0.1341
@<TRIPOS>BOND
     1    1    2 1
     2    1   38 1
     3    1   39 1
     4    2    7 ar
     5    2    3 ar
     6    3   19 1
     7    3    4 ar
     8    4    5 ar
     9    4    8 1
    10    5    6 ar
    11    6    7 ar
    12    6   40 1
    13    8    9 1
    14    8   18 1
    15    9   10 1
    16    9   41 1
    17    9   42 1
    18   10   17 1
    19   10   11 1
    20   10   43 1
    21   11   12 1
    22   11   44 1
    23   11   45 1
    24   12   13 1
    25   12   46 1
    26   12   47 1
    27   13   14 1
    28   13   15 1
    29   13   16 1
    30   16   17 1
    31   16   48 1
    32   16   49 1
    33   17   50 1
    34   17   51 1
    35   18   19 2
    36   19   20 1
    37   20   37 ar
    38   20   21 ar
    39   21   22 ar
    40   21   52 1
    41   22   35 ar
    42   22   23 ar
    43   23   24 ar
    44   23   53 1
    45   24   25 ar
    46   24   54 1
    47   25   26 1
    48   25   34 ar
    49   26   27 1
    50   27   28 1
    51   27   55 1
    52   27   56 1
    53   28   33 ar
    54   28   29 ar
    55   29   30 ar
    56   29   57 1
    57   30   31 ar
    58   30   58 1
    59   31   32 ar
    60   31   59 1
    61   32   33 ar
    62   32   60 1
    63   33   61 1
    64   34   35 ar
    65   35   36 ar
    66   36   37 ar
    67   36   62 1
    68   37   63 1
##########                 Name:                 1433
##########          Protonation:                   86
##########               SMILES:   c1ccc(cc1)COc2ccc3cc(ccc3n2)c4c5c(ncnc5n(n4)CC6CC[NH2+]CC6)N
##########            Long Name:   y-6-quinolyl)-1-(piperidin-1-ium-4-ylmethyl)pyrazolo[3,4-d]pyrimidin-4-amine
##########          FlexRecCode: 1
##########               Number:                  170
##########   Ligand Source File: /raid1/people/rgc/Examples/tdt/part3/ligand22set/build/ligand22set-0000001.db2.g
##########           GlobalRank: 6
##########                 Rank:                    2
##########               Setnum:                  398
##########             Matchnum:                56921
##########                Cloud:                    1
##########        Electrostatic:            -3.468772
##########        Van der Waals:           -41.374813
##########  Ligand Polar Desolv:             3.474864
########## Ligand Apolar Desolv:            -3.877268
##########      Internal Energy:             0.000000
##########      Receptor Energy: 0.0
########## Receptor Desolvation:             0.000000
########## Receptor Hydrophobic:             0.000000
##########         Total Energy: -45.25
##########        Ligand Charge:             1.000000
##########            Arbitrary:    +999.9990
##########     heavy atom count:   35
##########           pose count:    7
##########        Ligand Energy:             0.000000
# num electro vdwattr vdwrepu polsolv apolsol rdesolv rhydroe totalscore fullpol fullapo
#   1   11.14   -2.63    1.45   -3.18    0.32    0.00    0.00       7.09   -7.97    0.81
#   2   -6.26   -1.78    0.71    1.30   -0.72    0.00    0.00      -6.75    3.91   -2.15
#   3    3.33   -0.72    0.08   -0.67   -0.10    0.00    0.00       1.91   -2.84   -0.44
#   4   -2.03   -0.49    0.03    0.60   -0.31    0.00    0.00      -2.20    3.36   -1.77
#   5    1.31   -0.66    0.05   -1.31    0.45    0.00    0.00      -0.16   -5.89    2.01
#   6   -0.63   -1.60    0.41    1.24   -1.03    0.00    0.00      -1.61    3.80   -3.16
#   7    2.20   -2.78    1.43   -1.94    0.80    0.00    0.00      -0.29   -5.05    2.08
#   8    1.14   -0.40    0.01   -0.62    0.17    0.00    0.00       0.30   -3.88    1.04
#   9    0.09   -0.25    0.01    0.25   -0.06    0.00    0.00       0.04    1.73   -0.43
#  10   -0.27   -0.33    0.02   -0.39   -0.03    0.00    0.00      -1.00   -2.09   -0.15
#  11   -0.41   -0.73    0.22   -0.74   -0.05    0.00    0.00      -1.71   -3.27   -0.21
#  12   -0.01   -0.55    0.07    0.20   -0.11    0.00    0.00      -0.40    0.86   -0.47
#  13   -1.11   -0.35    0.01   -2.54    0.14    0.00    0.00      -3.84  -16.22    0.89
#  14    0.96   -0.01    0.00    0.92    0.03    0.00    0.00       1.91   16.73    0.56
#  15    0.89   -0.01    0.00    1.00    0.03    0.00    0.00       1.92   18.00    0.57
#  16   -0.01   -0.39    0.04    0.11   -0.08    0.00    0.00      -0.33    0.62   -0.47
#  17   -0.25   -0.30    0.03   -0.53   -0.03    0.00    0.00      -1.09   -3.58   -0.22
#  18    1.16   -0.87    0.12   -0.50    0.27    0.00    0.00       0.18   -2.18    1.18
#  19   -1.74   -0.74    0.07    0.28   -0.18    0.00    0.00      -2.32    1.19   -0.75
#  20    0.44   -1.00    0.10   -0.11   -0.12    0.00    0.00      -0.69   -0.34   -0.38
#  21    0.41   -1.04    0.13   -0.12   -0.10    0.00    0.00      -0.72   -0.37   -0.31
#  22    0.42   -1.23    0.14   -0.38   -0.16    0.00    0.00      -1.21   -0.97   -0.40
#  23    0.02   -1.53    0.32    0.01   -0.20    0.00    0.00      -1.37    0.03   -0.46
#  24   -0.40   -1.77    0.41   -0.57   -0.23    0.00    0.00      -2.56   -1.15   -0.46
#  25    2.15   -1.92    0.69    0.34   -0.31    0.00    0.00       0.94    0.71   -0.66
#  26   -2.36   -1.56    0.34   -0.25    0.46    0.00    0.00      -3.37   -0.46    0.85
#  27    1.16   -1.24    0.22    0.17   -0.07    0.00    0.00       0.24    0.29   -0.12
#  28   -1.24   -2.37    0.91   -0.16   -0.24    0.00    0.00      -3.11   -0.26   -0.39
#  29   -1.42   -2.70    0.84   -0.19   -0.27    0.00    0.00      -3.73   -0.32   -0.45
#  30   -1.72   -2.55    0.84   -0.29   -0.29    0.00    0.00      -4.00   -0.47   -0.47
#  31   -1.00   -2.75    0.82   -0.29   -0.30    0.00    0.00      -3.52   -0.45   -0.47
#  32   -0.42   -3.55    1.46   -0.30   -0.31    0.00    0.00      -3.12   -0.45   -0.47
#  33   -0.58   -2.91    1.06   -0.19   -0.28    0.00    0.00      -2.90   -0.30   -0.45
#  34   -3.65   -2.42    1.16   -0.60    1.30    0.00    0.00      -4.22   -1.30    2.80
#  35   -0.15   -1.58    0.29    0.23   -0.32    0.00    0.00      -1.54    0.51   -0.73
#  36    0.61   -1.98    0.44   -0.33   -0.20    0.00    0.00      -1.47   -0.75   -0.46
#  37    0.71   -1.54    0.25   -0.13   -0.18    0.00    0.00      -0.89   -0.34   -0.45
#  38   -5.33   -0.09    0.01    2.18    0.28    0.00    0.00      -2.95    4.64    0.59
#  39   -5.24   -0.02    0.00    1.18    0.10    0.00    0.00      -3.98    4.24    0.36
#  40   -0.02   -0.54    0.43    1.09   -0.08    0.00    0.00       0.87    3.61   -0.28
#  41    0.10   -0.06    0.00    0.09   -0.02    0.00    0.00       0.11    1.41   -0.28
#  42    0.07   -0.08    0.00    0.14   -0.02    0.00    0.00       0.11    1.88   -0.28
#  43    0.22   -0.16    0.02    0.18   -0.04    0.00    0.00       0.23    1.22   -0.28
#  44    0.29   -0.25    0.07    0.43   -0.05    0.00    0.00       0.49    2.48   -0.28
#  45    0.34   -0.47    0.38    0.02   -0.05    0.00    0.00       0.22    0.10   -0.22
#  46    0.44   -0.32    0.09    1.11   -0.06    0.00    0.00       1.25    4.79   -0.28
#  47    0.34   -0.12    0.01    0.39   -0.03    0.00    0.00       0.58    3.60   -0.28
#  48    0.21   -0.09    0.01    0.54   -0.03    0.00    0.00       0.65    6.03   -0.28
#  49    0.22   -0.26    0.06    0.79   -0.06    0.00    0.00       0.76    4.00   -0.28
#  50    0.17   -0.16    0.05    0.25   -0.03    0.00    0.00       0.27    2.08   -0.28
#  51    0.18   -0.04    0.00    0.14   -0.01    0.00    0.00       0.26    3.23   -0.28
#  52   -0.85   -0.16    0.01    0.24   -0.03    0.00    0.00      -0.78    1.70   -0.24
#  53   -0.43   -0.26    0.03    0.78   -0.08    0.00    0.00       0.04    2.72   -0.28
#  54    0.46   -0.37    0.06    0.59   -0.13    0.00    0.00       0.60    1.27   -0.28
#  55    1.07   -0.40    0.09    0.06   -0.12    0.00    0.00       0.71    0.15   -0.28
#  56    0.57   -0.57    0.31    0.08   -0.12    0.00    0.00       0.26    0.18   -0.28
#  57    1.69   -0.67    0.21    0.33   -0.16    0.00    0.00       1.40    0.59   -0.28
#  58    1.67   -0.47    0.09    0.41   -0.14    0.00    0.00       1.56    0.85   -0.28
#  59    1.06   -0.53    0.10    0.44   -0.14    0.00    0.00       0.93    0.86   -0.28
#  60   -0.46   -0.98    0.39    0.51   -0.18    0.00    0.00      -0.72    0.80   -0.28
#  61    0.42   -0.69    0.37    0.28   -0.15    0.00    0.00       0.23    0.51   -0.28
#  62   -1.00   -0.84    0.69    0.42   -0.12    0.00    0.00      -0.86    0.95   -0.28
#  63   -2.14   -0.51    0.35    0.46   -0.08    0.00    0.00      -1.92    1.63   -0.28

@<TRIPOS>MOLECULE
             1433        86
   63    68     0     0     0



@<TRIPOS>ATOM
      1 N1         24.8768    17.1411    59.3311 N.pl3      1          -0.8249
      2 C1         25.9337    18.0281    59.2611 C.ar       1           0.5230
      3 C2         26.1690    18.9506    60.2941 C.ar       1          -0.3257
      4 C3         27.2595    19.8316    60.1737 C.ar       1           0.3748
      5 N2         28.0255    19.7551    59.0853 N.ar       1          -0.5814
      6 C4         27.7673    18.8747    58.1436 C.ar       1           0.3909
      7 N3         26.7567    18.0263    58.2173 N.ar       1          -0.5996
      8 N4         27.2649    20.6108    61.2922 N.pl3      1          -0.3857
      9 C5         28.2351    21.6696    61.5813 C.3        1           0.1476
     10 C6         28.6996    21.5527    63.0343 C.3        1          -0.1199
     11 C7         29.7215    22.6529    63.3354 C.3        1          -0.1423
     12 C8         30.2409    22.4818    64.7645 C.3        1          -0.0051
     13 N5         30.8797    21.1676    64.9027 N.4        1          -0.5050
     14 H1         31.6187    21.0805    64.2212 H          1           0.4290
     15 H2         31.2669    21.0788    65.8304 H          1           0.4324
     16 C9         29.8887    20.1069    64.6860 C.3        1          -0.0045
     17 C10        29.3557    20.1864    63.2538 C.3        1          -0.1410
     18 N6         26.1996    20.2426    62.1209 N.2        1          -0.2373
     19 C11        25.5234    19.2625    61.5692 C.2        1           0.1865
     20 C12        24.3261    18.5955    62.1333 C.ar       1          -0.0463
     21 C13        24.3561    17.2373    62.3976 C.ar       1          -0.0608
     22 C14        23.2199    16.6142    62.9310 C.ar       1          -0.1358
     23 C15        23.2109    15.2325    63.2146 C.ar       1          -0.0232
     24 C16        22.0743    14.6874    63.7328 C.ar       1          -0.1699
     25 C17        20.9569    15.4978    63.9690 C.ar       1           0.3678
     26 O1         19.8336    14.9413    64.4850 O.3        1          -0.2943
     27 C18        18.6432    15.0359    63.7002 C.3        1           0.1145
     28 C19        17.4430    15.0765    64.6109 C.ar       1          -0.1052
     29 C20        16.3012    15.7505    64.2197 C.ar       1          -0.0946
     30 C21        15.2005    15.7878    65.0550 C.ar       1          -0.1225
     31 C22        15.2414    15.1505    66.2814 C.ar       1          -0.1060
     32 C23        16.3826    14.4759    66.6717 C.ar       1          -0.1223
     33 C24        17.4820    14.4350    65.8346 C.ar       1          -0.0945
     34 N7         20.9708    16.7859    63.7026 N.ar       1          -0.5422
     35 C25        22.0563    17.3792    63.1931 C.ar       1           0.1857
     36 C26        22.0586    18.7572    62.9128 C.ar       1          -0.0958
     37 C27        23.1708    19.3465    62.4016 C.ar       1          -0.0640
     38 H3         24.7291    16.5052    58.6136 H          1           0.4149
     39 H4         24.2849    17.1516    60.0994 H          1           0.4151
     40 H5         28.4088    18.8416    57.2756 H          1           0.2063
     41 H6         29.0928    21.5679    60.9164 H          1           0.1061
     42 H7         27.7683    22.6423    61.4262 H          1           0.1046
     43 H8         27.8433    21.6570    63.7004 H          1           0.0970
     44 H9         30.5531    22.5789    62.6346 H          1           0.0995
     45 H10        29.2460    23.6286    63.2353 H          1           0.1055
     46 H11        30.9685    23.2637    64.9822 H          1           0.1342
     47 H12        29.4086    22.5562    65.4644 H          1           0.1280
     48 H13        30.3563    19.1352    64.8456 H          1           0.1367
     49 H14        29.0639    20.2318    65.3876 H          1           0.1306
     50 H15        28.6187    19.3991    63.0954 H          1           0.1172
     51 H16        30.1797    20.0613    62.5513 H          1           0.0949
     52 H17        25.2475    16.6624    62.1942 H          1           0.1389
     53 H18        24.0818    14.6224    63.0259 H          1           0.1524
     54 H19        22.0353    13.6324    63.9605 H          1           0.1521
     55 H20        18.6749    15.9453    63.1002 H          1           0.0791
     56 H21        18.5715    14.1693    63.0430 H          1           0.0791
     57 H22        16.2694    16.2483    63.2618 H          1           0.1237
     58 H23        14.3087    16.3150    64.7497 H          1           0.1269
     59 H24        14.3812    15.1802    66.9337 H          1           0.1264
     60 H25        16.4146    13.9785    67.6298 H          1           0.1270
     61 H26        18.3725    13.9047    66.1382 H          1           0.1239
     62 H27        21.1765    19.3489    63.1087 H          1           0.1435
     63 H28        23.1644    20.4064    62.1945 H          1           0.1341
@<TRIPOS>BOND
     1    1    2 1
     2    1   38 1
     3    1   39 1
     4    2    7 ar
     5    2    3 ar
     6    3   19 1
     7    3    4 ar
     8    4    5 ar
     9    4    8 1
    10    5    6 ar
    11    6    7 ar
    12    6   40 1
    13    8    9 1
    14    8   18 1
    15    9   10 1
    16    9   41 1
    17    9   42 1
    18   10   17 1
    19   10   11 1
    20   10   43 1
    21   11   12 1
    22   11   44 1
    23   11   45 1
    24   12   13 1
    25   12   46 1
    26   12   47 1
    27   13   14 1
    28   13   15 1
    29   13   16 1
    30   16   17 1
    31   16   48 1
    32   16   49 1
    33   17   50 1
    34   17   51 1
    35   18   19 2
    36   19   20 1
    37   20   37 ar
    38   20   21 ar
    39   21   22 ar
    40   21   52 1
    41   22   35 ar
    42   22   23 ar
    43   23   24 ar
    44   23   53 1
    45   24   25 ar
    46   24   54 1
    47   25   26 1
    48   25   34 ar
    49   26   27 1
    50   27   28 1
    51   27   55 1
    52   27   56 1
    53   28   33 ar
    54   28   29 ar
    55   29   30 ar
    56   29   57 1
    57   30   31 ar
    58   30   58 1
    59   31   32 ar
    60   31   59 1
    61   32   33 ar
    62   32   60 1
    63   33   61 1
    64   34   35 ar
    65   35   36 ar
    66   36   37 ar
    67   36   62 1
    68   37   63 1
##########                 Name:                 1521
##########          Protonation:                   83
##########               SMILES:   CCOc1ccc2cc(ccc2c1)c3cc(cc4c3c(n[nH]4)N)CN5CC[NH2+]CC5
##########            Long Name:   4-(6-ethoxy-2-naphthyl)-6-(piperazin-4-ium-1-ylmethyl)-1H-indazol-3-amine
##########          FlexRecCode: 1
##########               Number:                   99
##########   Ligand Source File: /raid1/people/rgc/Examples/tdt/part3/ligand22set/build/ligand22set-0000001.db2.g
##########           GlobalRank: 2
##########                 Rank:                    1
##########               Setnum:                  136
##########             Matchnum:                 1577
##########                Cloud:                    1
##########        Electrostatic:           -39.706890
##########        Van der Waals:           -38.405537
##########  Ligand Polar Desolv:            16.407030
########## Ligand Apolar Desolv:            -3.554790
##########      Internal Energy:             0.000000
##########      Receptor Energy: 0.0
########## Receptor Desolvation:             0.000000
########## Receptor Hydrophobic:             0.000000
##########         Total Energy: -65.26
##########        Ligand Charge:             1.000000
##########            Arbitrary:    +999.9990
##########     heavy atom count:   30
##########           pose count:   10
##########        Ligand Energy:             0.000000
# num electro vdwattr vdwrepu polsolv apolsol rdesolv rhydroe totalscore fullpol fullapo
#   1   -1.02   -1.26    0.18   -0.60   -0.14    0.00    0.00      -2.84   -0.93   -0.21
#   2    0.48   -1.60    0.51    0.15   -0.07    0.00    0.00      -0.53    0.24   -0.11
#   3   -3.14   -1.75    0.36   -0.52    0.57    0.00    0.00      -4.49   -0.80    0.88
#   4    1.64   -2.69    1.71    0.16   -0.20    0.00    0.00       0.62    0.25   -0.31
#   5   -1.44   -2.98    1.02   -0.88   -0.27    0.00    0.00      -4.56   -1.38   -0.43
#   6   -0.47   -2.75    0.65   -0.26   -0.30    0.00    0.00      -3.13   -0.40   -0.46
#   7   -1.04   -2.14    0.43   -0.45   -0.25    0.00    0.00      -3.46   -0.72   -0.40
#   8   -0.73   -2.04    0.47   -0.28   -0.25    0.00    0.00      -2.82   -0.48   -0.43
#   9   -0.87   -1.81    0.35   -0.29   -0.18    0.00    0.00      -2.80   -0.55   -0.34
#  10   -1.30   -3.11    2.07   -0.29   -0.17    0.00    0.00      -2.79   -0.53   -0.31
#  11   -1.50   -4.18    3.26   -0.39   -0.27    0.00    0.00      -3.08   -0.66   -0.45
#  12   -0.09   -2.67    0.73   -0.11   -0.24    0.00    0.00      -2.36   -0.18   -0.40
#  13   -2.04   -3.10    1.34   -0.32   -0.27    0.00    0.00      -4.38   -0.54   -0.45
#  14    0.28   -1.64    0.36    0.03   -0.17    0.00    0.00      -1.14    0.07   -0.37
#  15   -0.53   -1.75    0.47   -0.81   -0.23    0.00    0.00      -2.85   -1.49   -0.43
#  16    1.42   -2.37    0.46    0.67   -1.45    0.00    0.00      -1.27    1.07   -2.32
#  17   -1.58   -3.06    0.89   -2.46    0.56    0.00    0.00      -5.65   -3.79    0.86
#  18   -1.89   -5.17    4.25   -0.67    0.76    0.00    0.00      -2.73   -1.09    1.24
#  19    0.77   -3.53    2.38   -1.75    0.39    0.00    0.00      -1.74   -3.30    0.73
#  20   -0.02   -1.84    0.48    0.53   -0.38    0.00    0.00      -1.22    1.12   -0.80
#  21    0.29   -1.44    0.25   -0.72   -0.15    0.00    0.00      -1.77   -1.79   -0.37
#  22    0.07   -1.32    0.15    0.02   -0.14    0.00    0.00      -1.21    0.06   -0.34
#  23   -0.63   -0.91    0.12    0.76   -0.15    0.00    0.00      -0.82    1.98   -0.39
#  24    6.27   -1.06    0.07   -5.33    1.31    0.00    0.00       1.25  -13.10    3.21
#  25   -0.25   -0.83    0.11   -0.02   -0.15    0.00    0.00      -1.14   -0.05   -0.38
#  26    0.07   -1.56    0.48    0.40   -0.24    0.00    0.00      -0.84    0.82   -0.48
#  27   16.20   -3.50    4.99   -7.44    0.39    0.00    0.00      10.63  -16.96    0.89
#  28  -16.51   -0.14    0.06    6.39    0.21    0.00    0.00     -10.00   17.21    0.57
#  29  -15.98   -0.27    0.20    9.10    0.28    0.00    0.00      -6.67   18.40    0.57
#  30    0.06   -1.33    0.44    0.31   -0.18    0.00    0.00      -0.71    0.82   -0.48
#  31   -0.35   -0.86    0.16    0.10   -0.15    0.00    0.00      -1.10    0.29   -0.42
#  32   -0.30   -1.68    0.38   -0.69   -0.19    0.00    0.00      -2.48   -1.56   -0.43
#  33    0.29   -0.40    0.06    0.10   -0.13    0.00    0.00      -0.08    0.21   -0.28
#  34    0.46   -0.43    0.09    0.11   -0.13    0.00    0.00       0.11    0.23   -0.28
#  35    0.51   -0.46    0.15    0.51   -0.15    0.00    0.00       0.56    0.97   -0.28
#  36    0.71   -0.80    1.30    0.30   -0.13    0.00    0.00       1.38    0.65   -0.27
#  37    0.50   -0.78    0.50    0.36   -0.14    0.00    0.00       0.45    0.68   -0.27
#  38    0.48   -0.69    0.17    0.87   -0.13    0.00    0.00       0.70    1.52   -0.22
#  39    0.35   -0.65    0.12    1.55   -0.17    0.00    0.00       1.21    2.55   -0.28
#  40    1.06   -0.62    0.44    1.05   -0.12    0.00    0.00       1.80    2.35   -0.28
#  41    0.73   -0.67    0.45    0.26   -0.13    0.00    0.00       0.63    0.56   -0.28
#  42    0.90   -1.77    4.48    0.45   -0.18    0.00    0.00       3.89    0.70   -0.28
#  43    0.87   -1.05    1.32    0.08   -0.16    0.00    0.00       1.06    0.15   -0.28
#  44    1.63   -0.04    0.00    1.07    0.18    0.00    0.00       2.84    2.18    0.36
#  45   -1.58   -0.10    0.01    1.32    0.38    0.00    0.00       0.03    2.07    0.59
#  46   -2.98   -0.09    0.01    1.88    0.18    0.00    0.00      -1.00    4.26    0.40
#  47   -0.40   -0.23    0.02    0.72   -0.06    0.00    0.00       0.05    3.13   -0.28
#  48   -0.49   -0.61    0.21    0.71   -0.11    0.00    0.00      -0.28    1.77   -0.27
#  49   -0.46   -0.22    0.04    0.26   -0.05    0.00    0.00      -0.43    1.45   -0.28
#  50   -0.99   -0.25    0.04    0.59   -0.07    0.00    0.00      -0.68    2.27   -0.28
#  51   -1.35   -0.36    0.16    0.39   -0.06    0.00    0.00      -1.22    1.37   -0.21
#  52   -4.19   -1.02    1.14    2.89   -0.14    0.00    0.00      -1.33    5.60   -0.28
#  53   -3.00   -0.35    0.05    1.51   -0.11    0.00    0.00      -1.90    3.78   -0.28
#  54   -3.08   -0.34    0.08    1.80   -0.08    0.00    0.00      -1.62    6.15   -0.28
#  55   -3.68   -0.64    0.45    1.58   -0.11    0.00    0.00      -2.40    4.08   -0.28
#  56   -1.52   -0.59    0.39    0.64   -0.08    0.00    0.00      -1.16    2.21   -0.28
#  57   -0.83   -0.14    0.01    0.30   -0.04    0.00    0.00      -0.70    2.17   -0.28
#  58    0.46   -0.48    0.25    0.74   -0.10    0.00    0.00       0.87    2.15   -0.28

@<TRIPOS>MOLECULE
             1521        83
   58    62     0     0     0



@<TRIPOS>ATOM
      1 C1         11.2066    14.6679    64.6413 C.3        1          -0.1549
      2 C2         12.5428    15.3243    64.2884 C.3        1           0.0533
      3 O1         13.3388    15.4487    65.4687 O.3        1          -0.3135
      4 C3         14.6876    15.4016    65.3110 C.ar       1           0.1416
      5 C4         15.4849    14.8900    66.3397 C.ar       1          -0.1859
      6 C5         16.8373    14.8305    66.2112 C.ar       1          -0.0644
      7 C6         17.4468    15.2881    65.0286 C.ar       1          -0.0836
      8 C7         18.8395    15.2391    64.8661 C.ar       1          -0.0669
      9 C8         19.4041    15.6977    63.6892 C.ar       1          -0.0757
     10 C9         18.5947    16.2098    62.6610 C.ar       1          -0.0992
     11 C10        17.2453    16.2659    62.7995 C.ar       1          -0.1066
     12 C11        16.6400    15.8069    63.9839 C.ar       1          -0.0056
     13 C12        15.2462    15.8493    64.1475 C.ar       1          -0.1575
     14 C13        20.8739    15.6491    63.5119 C.ar       1           0.0523
     15 C14        21.5548    14.4171    63.5602 C.ar       1          -0.1779
     16 C15        21.1324    13.0328    63.7624 C.2        1           0.3683
     17 N1         19.8224    12.5922    63.9722 N.pl3      1          -0.8332
     18 N2         22.2003    12.2807    63.7113 N.2        1          -0.3150
     19 N3         23.3313    13.0716    63.4853 N.pl3      1          -0.5062
     20 C16        22.9504    14.3851    63.3903 C.ar       1           0.1561
     21 C17        23.6450    15.5742    63.1754 C.ar       1          -0.1542
     22 C18        22.9676    16.7721    63.1301 C.ar       1          -0.0326
     23 C19        23.7311    18.0503    62.8974 C.3        1           0.0973
     24 N4         23.0235    18.8695    61.9044 N.3        1          -0.5329
     25 C20        22.8210    18.1236    60.6542 C.3        1           0.0162
     26 C21        22.0304    18.9886    59.6702 C.3        1          -0.0027
     27 N5         22.7696    20.2299    59.4055 N.4        1          -0.5085
     28 H1         23.6748    20.0064    59.0199 H          1           0.4258
     29 H2         22.2538    20.7945    58.7473 H          1           0.4340
     30 C22        22.9425    20.9756    60.6592 C.3        1          -0.0024
     31 C23        23.7407    20.1272    61.6516 C.3        1           0.0232
     32 C24        21.5911    16.8162    63.2914 C.ar       1          -0.1385
     33 H3         10.5994    14.5730    63.7410 H          1           0.0683
     34 H4         11.3875    13.6794    65.0634 H          1           0.0682
     35 H5         10.6807    15.2837    65.3709 H          1           0.0811
     36 H6         13.0687    14.7085    63.5588 H          1           0.0635
     37 H7         12.3617    16.3129    63.8666 H          1           0.0633
     38 H8         15.0202    14.5378    67.2488 H          1           0.1328
     39 H9         17.4411    14.4337    67.0139 H          1           0.1321
     40 H10        19.4659    14.8468    65.6535 H          1           0.1290
     41 H11        19.0521    16.5637    61.7488 H          1           0.1278
     42 H12        16.6364    16.6625    62.0006 H          1           0.1348
     43 H13        14.6189    16.2377    63.3588 H          1           0.1381
     44 H14        19.0932    13.2315    63.9932 H          1           0.4135
     45 H15        19.6426    11.6472    64.0969 H          1           0.4089
     46 H16        24.2408    12.7430    63.4079 H          1           0.4419
     47 H17        24.7168    15.5558    63.0442 H          1           0.1228
     48 H18        23.8098    18.6021    63.8341 H          1           0.1014
     49 H19        24.7298    17.8152    62.5294 H          1           0.0587
     50 H20        23.7887    17.8713    60.2205 H          1           0.0617
     51 H21        22.2657    17.2091    60.8621 H          1           0.1281
     52 H22        21.8915    18.4425    58.7371 H          1           0.1376
     53 H23        21.0574    19.2292    60.0985 H          1           0.1398
     54 H24        23.4796    21.9027    60.4594 H          1           0.1387
     55 H25        21.9648    21.2062    61.0825 H          1           0.1399
     56 H26        23.8563    20.6743    62.5871 H          1           0.1252
     57 H27        24.7235    19.9079    61.2343 H          1           0.0622
     58 H28        21.0751    17.7640    63.2487 H          1           0.1303
@<TRIPOS>BOND
     1    1    2 1
     2    1   33 1
     3    1   34 1
     4    1   35 1
     5    2    3 1
     6    2   36 1
     7    2   37 1
     8    3    4 1
     9    4   13 ar
    10    4    5 ar
    11    5    6 ar
    12    5   38 1
    13    6    7 ar
    14    6   39 1
    15    7   12 ar
    16    7    8 ar
    17    8    9 ar
    18    8   40 1
    19    9   10 ar
    20    9   14 1
    21   10   11 ar
    22   10   41 1
    23   11   12 ar
    24   11   42 1
    25   12   13 ar
    26   13   43 1
    27   14   32 ar
    28   14   15 ar
    29   15   20 ar
    30   15   16 1
    31   16   17 1
    32   16   18 2
    33   17   44 1
    34   17   45 1
    35   18   19 1
    36   19   20 1
    37   19   46 1
    38   20   21 ar
    39   21   22 ar
    40   21   47 1
    41   22   23 1
    42   22   32 ar
    43   23   24 1
    44   23   48 1
    45   23   49 1
    46   24   31 1
    47   24   25 1
    48   25   26 1
    49   25   50 1
    50   25   51 1
    51   26   27 1
    52   26   52 1
    53   26   53 1
    54   27   28 1
    55   27   29 1
    56   27   30 1
    57   30   31 1
    58   30   54 1
    59   30   55 1
    60   31   56 1
    61   31   57 1
    62   32   58 1
##########                 Name:                 1521
##########          Protonation:                   83
##########               SMILES:   CCOc1ccc2cc(ccc2c1)c3cc(cc4c3c(n[nH]4)N)CN5CC[NH2+]CC5
##########            Long Name:   4-(6-ethoxy-2-naphthyl)-6-(piperazin-4-ium-1-ylmethyl)-1H-indazol-3-amine
##########          FlexRecCode: 1
##########               Number:                   99
##########   Ligand Source File: /raid1/people/rgc/Examples/tdt/part3/ligand22set/build/ligand22set-0000001.db2.g
##########           GlobalRank: 2
##########                 Rank:                    2
##########               Setnum:                  136
##########             Matchnum:                 9372
##########                Cloud:                    1
##########        Electrostatic:           -37.993191
##########        Van der Waals:           -37.372894
##########  Ligand Polar Desolv:            14.817763
########## Ligand Apolar Desolv:            -3.583343
##########      Internal Energy:             0.000000
##########      Receptor Energy: 0.0
########## Receptor Desolvation:             0.000000
########## Receptor Hydrophobic:             0.000000
##########         Total Energy: -64.13
##########        Ligand Charge:             1.000000
##########            Arbitrary:    +999.9990
##########     heavy atom count:   30
##########           pose count:   10
##########        Ligand Energy:             0.000000
# num electro vdwattr vdwrepu polsolv apolsol rdesolv rhydroe totalscore fullpol fullapo
#   1   -1.03   -1.28    0.18   -0.60   -0.14    0.00    0.00      -2.86   -0.93   -0.21
#   2    0.49   -1.63    0.50    0.14   -0.07    0.00    0.00      -0.57    0.24   -0.11
#   3   -3.16   -1.77    0.39   -0.52    0.57    0.00    0.00      -4.49   -0.80    0.88
#   4    1.64   -2.77    1.96    0.16   -0.19    0.00    0.00       0.79    0.25   -0.31
#   5   -1.35   -3.13    1.31   -0.88   -0.27    0.00    0.00      -4.32   -1.38   -0.43
#   6   -0.43   -2.86    0.83   -0.26   -0.30    0.00    0.00      -3.02   -0.40   -0.46
#   7   -1.01   -2.14    0.45   -0.45   -0.25    0.00    0.00      -3.41   -0.72   -0.40
#   8   -0.70   -2.02    0.46   -0.28   -0.25    0.00    0.00      -2.78   -0.48   -0.43
#   9   -0.85   -1.78    0.33   -0.29   -0.18    0.00    0.00      -2.76   -0.55   -0.34
#  10   -1.34   -3.09    2.24   -0.28   -0.17    0.00    0.00      -2.64   -0.53   -0.31
#  11   -1.57   -4.08    3.04   -0.39   -0.26    0.00    0.00      -3.26   -0.66   -0.45
#  12   -0.09   -2.63    0.70   -0.11   -0.24    0.00    0.00      -2.36   -0.18   -0.40
#  13   -2.08   -3.08    1.29   -0.32   -0.27    0.00    0.00      -4.47   -0.54   -0.45
#  14    0.27   -1.63    0.36    0.03   -0.17    0.00    0.00      -1.15    0.07   -0.37
#  15   -0.49   -1.79    0.56   -0.81   -0.23    0.00    0.00      -2.76   -1.49   -0.43
#  16    1.39   -2.44    0.51    0.67   -1.45    0.00    0.00      -1.33    1.07   -2.32
#  17   -1.58   -3.06    0.85   -2.47    0.56    0.00    0.00      -5.70   -3.79    0.86
#  18   -2.02   -5.84    6.36   -0.68    0.77    0.00    0.00      -1.41   -1.09    1.24
#  19    1.17   -4.05    4.14   -1.75    0.39    0.00    0.00      -0.10   -3.30    0.73
#  20   -0.06   -1.86    0.50    0.53   -0.38    0.00    0.00      -1.27    1.12   -0.80
#  21    0.29   -1.45    0.25   -0.72   -0.15    0.00    0.00      -1.77   -1.79   -0.37
#  22    0.07   -1.37    0.17    0.02   -0.14    0.00    0.00      -1.25    0.06   -0.34
#  23   -0.60   -1.05    0.20    0.76   -0.15    0.00    0.00      -0.83    1.98   -0.39
#  24    5.78   -1.11    0.08   -5.18    1.27    0.00    0.00       0.84  -13.10    3.21
#  25   -0.24   -0.74    0.07   -0.02   -0.15    0.00    0.00      -1.07   -0.05   -0.38
#  26    0.07   -1.31    0.31    0.39   -0.23    0.00    0.00      -0.77    0.82   -0.48
#  27   14.85   -2.50    2.03   -7.04    0.37    0.00    0.00       7.71  -16.96    0.89
#  28  -14.37   -0.08    0.01    5.59    0.19    0.00    0.00      -8.66   17.21    0.57
#  29  -15.02   -0.14    0.03    8.30    0.26    0.00    0.00      -6.56   18.40    0.57
#  30    0.05   -1.38    0.73    0.30   -0.18    0.00    0.00      -0.47    0.82   -0.48
#  31   -0.31   -0.95    0.21    0.10   -0.14    0.00    0.00      -1.10    0.29   -0.42
#  32   -0.29   -1.70    0.40   -0.69   -0.19    0.00    0.00      -2.47   -1.56   -0.43
#  33    0.29   -0.43    0.08    0.10   -0.13    0.00    0.00      -0.10    0.21   -0.28
#  34    0.47   -0.40    0.08    0.11   -0.13    0.00    0.00       0.12    0.23   -0.28
#  35    0.51   -0.46    0.15    0.51   -0.15    0.00    0.00       0.57    0.97   -0.28
#  36    0.73   -0.75    0.87    0.31   -0.13    0.00    0.00       1.02    0.65   -0.27
#  37    0.49   -0.84    0.65    0.36   -0.14    0.00    0.00       0.53    0.68   -0.27
#  38    0.39   -0.72    0.21    0.87   -0.13    0.00    0.00       0.63    1.52   -0.22
#  39    0.21   -0.68    0.16    1.56   -0.17    0.00    0.00       1.08    2.55   -0.28
#  40    1.00   -0.59    0.38    1.03   -0.12    0.00    0.00       1.69    2.35   -0.28
#  41    0.76   -0.63    0.36    0.26   -0.13    0.00    0.00       0.62    0.56   -0.28
#  42    0.97   -1.55    2.95    0.45   -0.18    0.00    0.00       2.64    0.70   -0.28
#  43    0.84   -1.14    1.91    0.08   -0.16    0.00    0.00       1.54    0.15   -0.28
#  44    1.63   -0.04    0.00    1.09    0.18    0.00    0.00       2.86    2.18    0.36
#  45   -1.42   -0.10    0.01    1.36    0.39    0.00    0.00       0.24    2.07    0.59
#  46   -3.96   -0.13    0.04    1.91    0.18    0.00    0.00      -1.96    4.26    0.40
#  47   -0.39   -0.23    0.02    0.72   -0.06    0.00    0.00       0.06    3.13   -0.28
#  48   -0.45   -0.76    0.40    0.74   -0.11    0.00    0.00      -0.18    1.77   -0.27
#  49   -0.45   -0.26    0.07    0.28   -0.05    0.00    0.00      -0.41    1.45   -0.28
#  50   -0.95   -0.21    0.02    0.52   -0.06    0.00    0.00      -0.68    2.27   -0.28
#  51   -1.34   -0.30    0.10    0.36   -0.06    0.00    0.00      -1.24    1.37   -0.21
#  52   -4.09   -0.77    0.46    2.68   -0.13    0.00    0.00      -1.86    5.60   -0.28
#  53   -2.93   -0.31    0.04    1.40   -0.10    0.00    0.00      -1.91    3.78   -0.28
#  54   -2.71   -0.33    0.11    1.55   -0.07    0.00    0.00      -1.45    6.15   -0.28
#  55   -3.63   -0.98    2.13    1.53   -0.10    0.00    0.00      -1.06    4.08   -0.28
#  56   -1.19   -0.67    0.38    0.71   -0.09    0.00    0.00      -0.86    2.21   -0.28
#  57   -0.72   -0.14    0.01    0.31   -0.04    0.00    0.00      -0.58    2.17   -0.28
#  58    0.43   -0.47    0.22    0.75   -0.10    0.00    0.00       0.83    2.15   -0.28

@<TRIPOS>MOLECULE
             1521        83
   58    62     0     0     0



@<TRIPOS>ATOM
      1 C1         11.2502    14.7602    64.5625 C.3        1          -0.1549
      2 C2         12.6012    15.4089    64.2546 C.3        1           0.0533
      3 O1         13.3961    15.4404    65.4416 O.3        1          -0.3135
      4 C3         14.7440    15.3746    65.2834 C.ar       1           0.1416
      5 C4         15.5272    14.7812    66.2785 C.ar       1          -0.1859
      6 C5         16.8784    14.7010    66.1486 C.ar       1          -0.0644
      7 C6         17.5011    15.2202    64.9988 C.ar       1          -0.0836
      8 C7         18.8929    15.1518    64.8357 C.ar       1          -0.0669
      9 C8         19.4706    15.6725    63.6916 C.ar       1          -0.0757
     10 C9         18.6754    16.2666    62.6969 C.ar       1          -0.0992
     11 C10        17.3271    16.3428    62.8366 C.ar       1          -0.1066
     12 C11        16.7086    15.8219    63.9882 C.ar       1          -0.0056
     13 C12        15.3155    15.8837    64.1519 C.ar       1          -0.1575
     14 C13        20.9396    15.6038    63.5139 C.ar       1           0.0523
     15 C14        21.5939    14.3569    63.4842 C.ar       1          -0.1779
     16 C15        21.1415    12.9718    63.5967 C.2        1           0.3683
     17 N1         19.8218    12.5470    63.7758 N.pl3      1          -0.8332
     18 N2         22.1932    12.2018    63.4993 N.2        1          -0.3150
     19 N3         23.3415    12.9811    63.3262 N.pl3      1          -0.5062
     20 C16        22.9891    14.3059    63.3149 C.ar       1           0.1561
     21 C17        23.7095    15.4911    63.1777 C.ar       1          -0.1542
     22 C18        23.0579    16.7037    63.2082 C.ar       1          -0.0326
     23 C19        23.8492    17.9775    63.0591 C.3        1           0.0973
     24 N4         23.1622    18.8736    62.1194 N.3        1          -0.5329
     25 C20        22.9476    18.2138    60.8236 C.3        1           0.0162
     26 C21        22.1785    19.1567    59.8958 C.3        1          -0.0027
     27 N5         22.9448    20.3963    59.7124 N.4        1          -0.5085
     28 H1         23.8462    20.1785    59.3147 H          1           0.4258
     29 H2         22.4431    21.0127    59.0908 H          1           0.4340
     30 C22        23.1298    21.0563    61.0115 C.3        1          -0.0024
     31 C23        23.9068    20.1291    61.9488 C.3        1           0.0232
     32 C24        21.6822    16.7669    63.3697 C.ar       1          -0.1385
     33 H3         10.6438    14.7361    63.6570 H          1           0.0683
     34 H4         11.4088    13.7430    64.9207 H          1           0.0682
     35 H5         10.7354    15.3392    65.3292 H          1           0.0811
     36 H6         13.1160    14.8300    63.4878 H          1           0.0635
     37 H7         12.4425    16.4262    63.8966 H          1           0.0633
     38 H8         15.0524    14.3816    67.1625 H          1           0.1328
     39 H9         17.4712    14.2408    66.9252 H          1           0.1321
     40 H10        19.5084    14.6965    65.5974 H          1           0.1290
     41 H11        19.1429    16.6683    61.8100 H          1           0.1278
     42 H12        16.7292    16.8026    62.0637 H          1           0.1348
     43 H13        14.6990    16.3352    63.3886 H          1           0.1381
     44 H14        19.1063    13.1992    63.8364 H          1           0.4135
     45 H15        19.6215    11.6000    63.8394 H          1           0.4089
     46 H16        24.2440    12.6387    63.2294 H          1           0.4419
     47 H17        24.7810    15.4581    63.0474 H          1           0.1228
     48 H18        23.9368    18.4664    64.0292 H          1           0.1014
     49 H19        24.8438    17.7451    62.6783 H          1           0.0587
     50 H20        23.9110    17.9690    60.3763 H          1           0.0617
     51 H21        22.3723    17.2999    60.9717 H          1           0.1281
     52 H22        22.0308    18.6746    58.9294 H          1           0.1376
     53 H23        21.2096    19.3903    60.3371 H          1           0.1398
     54 H24        23.6871    21.9826    60.8724 H          1           0.1387
     55 H25        22.1560    21.2802    61.4472 H          1           0.1399
     56 H26        24.0312    20.6127    62.9176 H          1           0.1252
     57 H27        24.8859    19.9160    61.5199 H          1           0.0622
     58 H28        21.1866    17.7264    63.3870 H          1           0.1303
@<TRIPOS>BOND
     1    1    2 1
     2    1   33 1
     3    1   34 1
     4    1   35 1
     5    2    3 1
     6    2   36 1
     7    2   37 1
     8    3    4 1
     9    4   13 ar
    10    4    5 ar
    11    5    6 ar
    12    5   38 1
    13    6    7 ar
    14    6   39 1
    15    7   12 ar
    16    7    8 ar
    17    8    9 ar
    18    8   40 1
    19    9   10 ar
    20    9   14 1
    21   10   11 ar
    22   10   41 1
    23   11   12 ar
    24   11   42 1
    25   12   13 ar
    26   13   43 1
    27   14   32 ar
    28   14   15 ar
    29   15   20 ar
    30   15   16 1
    31   16   17 1
    32   16   18 2
    33   17   44 1
    34   17   45 1
    35   18   19 1
    36   19   20 1
    37   19   46 1
    38   20   21 ar
    39   21   22 ar
    40   21   47 1
    41   22   23 1
    42   22   32 ar
    43   23   24 1
    44   23   48 1
    45   23   49 1
    46   24   31 1
    47   24   25 1
    48   25   26 1
    49   25   50 1
    50   25   51 1
    51   26   27 1
    52   26   52 1
    53   26   53 1
    54   27   28 1
    55   27   29 1
    56   27   30 1
    57   30   31 1
    58   30   54 1
    59   30   55 1
    60   31   56 1
    61   31   57 1
    62   32   58 1
##########                 Name:                 1521
##########          Protonation:                   83
##########               SMILES:   CCOc1ccc2cc(ccc2c1)c3cc(cc4c3c(n[nH]4)N)CN5CC[NH2+]CC5
##########            Long Name:   4-(6-ethoxy-2-naphthyl)-6-(piperazin-4-ium-1-ylmethyl)-1H-indazol-3-amine
##########          FlexRecCode: 1
##########               Number:                   99
##########   Ligand Source File: /raid1/people/rgc/Examples/tdt/part3/ligand22set/build/ligand22set-0000001.db2.g
##########           GlobalRank: 2
##########                 Rank:                    3
##########               Setnum:                  136
##########             Matchnum:                 1583
##########                Cloud:                    1
##########        Electrostatic:           -39.695938
##########        Van der Waals:           -37.034828
##########  Ligand Polar Desolv:            16.581806
########## Ligand Apolar Desolv:            -3.549755
##########      Internal Energy:             0.000000
##########      Receptor Energy: 0.0
########## Receptor Desolvation:             0.000000
########## Receptor Hydrophobic:             0.000000
##########         Total Energy: -63.7
##########        Ligand Charge:             1.000000
##########            Arbitrary:    +999.9990
##########     heavy atom count:   30
##########           pose count:   10
##########        Ligand Energy:             0.000000
# num electro vdwattr vdwrepu polsolv apolsol rdesolv rhydroe totalscore fullpol fullapo
#   1   -1.02   -1.26    0.18   -0.60   -0.14    0.00    0.00      -2.83   -0.93   -0.21
#   2    0.48   -1.61    0.56    0.14   -0.07    0.00    0.00      -0.48    0.24   -0.11
#   3   -3.11   -1.79    0.41   -0.52    0.57    0.00    0.00      -4.43   -0.80    0.88
#   4    1.62   -2.78    2.06    0.16   -0.19    0.00    0.00       0.86    0.25   -0.31
#   5   -1.41   -3.01    1.06   -0.88   -0.27    0.00    0.00      -4.51   -1.38   -0.43
#   6   -0.46   -2.77    0.69   -0.26   -0.30    0.00    0.00      -3.11   -0.40   -0.46
#   7   -1.03   -2.15    0.44   -0.45   -0.25    0.00    0.00      -3.45   -0.72   -0.40
#   8   -0.72   -2.04    0.47   -0.28   -0.25    0.00    0.00      -2.81   -0.48   -0.43
#   9   -0.86   -1.79    0.33   -0.29   -0.18    0.00    0.00      -2.79   -0.55   -0.34
#  10   -1.27   -3.08    1.98   -0.29   -0.17    0.00    0.00      -2.82   -0.53   -0.31
#  11   -1.48   -4.19    3.35   -0.39   -0.27    0.00    0.00      -2.98   -0.66   -0.45
#  12   -0.09   -2.68    0.76   -0.11   -0.24    0.00    0.00      -2.34   -0.18   -0.40
#  13   -2.02   -3.13    1.47   -0.32   -0.27    0.00    0.00      -4.27   -0.54   -0.45
#  14    0.28   -1.64    0.36    0.03   -0.17    0.00    0.00      -1.14    0.07   -0.37
#  15   -0.52   -1.75    0.47   -0.81   -0.23    0.00    0.00      -2.85   -1.49   -0.43
#  16    1.44   -2.39    0.47    0.67   -1.45    0.00    0.00      -1.26    1.07   -2.32
#  17   -1.57   -3.08    0.90   -2.47    0.56    0.00    0.00      -5.65   -3.79    0.86
#  18   -1.86   -5.21    4.32   -0.67    0.76    0.00    0.00      -2.66   -1.09    1.24
#  19    0.79   -3.51    2.35   -1.74    0.39    0.00    0.00      -1.74   -3.30    0.73
#  20   -0.02   -1.84    0.48    0.53   -0.38    0.00    0.00      -1.23    1.12   -0.80
#  21    0.29   -1.44    0.25   -0.72   -0.15    0.00    0.00      -1.76   -1.79   -0.37
#  22    0.07   -1.32    0.15    0.02   -0.14    0.00    0.00      -1.21    0.06   -0.34
#  23   -0.64   -0.91    0.12    0.76   -0.15    0.00    0.00      -0.82    1.98   -0.39
#  24    6.30   -1.06    0.07   -5.33    1.31    0.00    0.00       1.28  -13.10    3.21
#  25   -0.25   -0.84    0.12   -0.02   -0.15    0.00    0.00      -1.14   -0.05   -0.38
#  26    0.07   -1.58    0.51    0.40   -0.24    0.00    0.00      -0.84    0.82   -0.48
#  27   16.31   -3.59    5.28   -7.48    0.39    0.00    0.00      10.91  -16.96    0.89
#  28  -16.70   -0.15    0.06    6.47    0.21    0.00    0.00     -10.11   17.21    0.57
#  29  -16.06   -0.28    0.23    9.18    0.28    0.00    0.00      -6.66   18.40    0.57
#  30    0.06   -1.34    0.44    0.32   -0.18    0.00    0.00      -0.72    0.82   -0.48
#  31   -0.35   -0.86    0.16    0.10   -0.15    0.00    0.00      -1.10    0.29   -0.42
#  32   -0.30   -1.67    0.37   -0.69   -0.19    0.00    0.00      -2.48   -1.56   -0.43
#  33    0.30   -0.39    0.06    0.10   -0.13    0.00    0.00      -0.07    0.21   -0.28
#  34    0.46   -0.44    0.11    0.11   -0.13    0.00    0.00       0.11    0.23   -0.28
#  35    0.50   -0.44    0.12    0.52   -0.15    0.00    0.00       0.55    0.97   -0.28
#  36    0.72   -0.86    1.61    0.30   -0.13    0.00    0.00       1.65    0.65   -0.27
#  37    0.51   -0.73    0.38    0.36   -0.14    0.00    0.00       0.38    0.68   -0.27
#  38    0.45   -0.70    0.18    0.87   -0.13    0.00    0.00       0.68    1.52   -0.22
#  39    0.34   -0.66    0.13    1.56   -0.17    0.00    0.00       1.20    2.55   -0.28
#  40    1.05   -0.62    0.44    1.05   -0.12    0.00    0.00       1.80    2.35   -0.28
#  41    0.71   -0.68    0.45    0.26   -0.13    0.00    0.00       0.62    0.56   -0.28
#  42    0.92   -1.83    5.13    0.45   -0.18    0.00    0.00       4.48    0.70   -0.28
#  43    0.92   -1.02    1.15    0.08   -0.16    0.00    0.00       0.98    0.15   -0.28
#  44    1.59   -0.04    0.00    1.08    0.18    0.00    0.00       2.81    2.18    0.36
#  45   -1.59   -0.10    0.01    1.32    0.38    0.00    0.00       0.01    2.07    0.59
#  46   -2.92   -0.08    0.01    1.87    0.18    0.00    0.00      -0.95    4.26    0.40
#  47   -0.40   -0.23    0.02    0.72   -0.06    0.00    0.00       0.05    3.13   -0.28
#  48   -0.49   -0.59    0.20    0.71   -0.11    0.00    0.00      -0.28    1.77   -0.27
#  49   -0.46   -0.22    0.04    0.26   -0.05    0.00    0.00      -0.43    1.45   -0.28
#  50   -0.99   -0.25    0.04    0.59   -0.07    0.00    0.00      -0.68    2.27   -0.28
#  51   -1.35   -0.37    0.17    0.39   -0.06    0.00    0.00      -1.21    1.37   -0.21
#  52   -4.20   -1.04    1.21    2.91   -0.15    0.00    0.00      -1.26    5.60   -0.28
#  53   -3.00   -0.36    0.05    1.52   -0.11    0.00    0.00      -1.89    3.78   -0.28
#  54   -3.13   -0.35    0.09    1.83   -0.08    0.00    0.00      -1.65    6.15   -0.28
#  55   -3.69   -0.62    0.40    1.59   -0.11    0.00    0.00      -2.43    4.08   -0.28
#  56   -1.56   -0.59    0.41    0.63   -0.08    0.00    0.00      -1.18    2.21   -0.28
#  57   -0.84   -0.14    0.01    0.30   -0.04    0.00    0.00      -0.71    2.17   -0.28
#  58    0.46   -0.48    0.25    0.74   -0.10    0.00    0.00       0.87    2.15   -0.28

@<TRIPOS>MOLECULE
             1521        83
   58    62     0     0     0



@<TRIPOS>ATOM
      1 C1         11.2195    14.5912    64.6236 C.3        1          -0.1549
      2 C2         12.5515    15.2554    64.2695 C.3        1           0.0533
      3 O1         13.3438    15.3933    65.4507 O.3        1          -0.3135
      4 C3         14.6932    15.3555    65.2963 C.ar       1           0.1416
      5 C4         15.4921    14.8564    66.3299 C.ar       1          -0.1859
      6 C5         16.8452    14.8063    66.2048 C.ar       1          -0.0644
      7 C6         17.4539    15.2611    65.0207 C.ar       1          -0.0836
      8 C7         18.8473    15.2216    64.8616 C.ar       1          -0.0669
      9 C8         19.4111    15.6771    63.6831 C.ar       1          -0.0757
     10 C9         18.6001    16.1765    62.6498 C.ar       1          -0.0992
     11 C10        17.2501    16.2233    62.7850 C.ar       1          -0.1066
     12 C11        16.6456    15.7671    63.9710 C.ar       1          -0.0056
     13 C12        15.2511    15.8000    64.1312 C.ar       1          -0.1575
     14 C13        20.8816    15.6384    63.5093 C.ar       1           0.0523
     15 C14        21.5716    14.4120    63.5669 C.ar       1          -0.1779
     16 C15        21.1593    13.0258    63.7770 C.2        1           0.3683
     17 N1         19.8522    12.5767    63.9867 N.pl3      1          -0.8332
     18 N2         22.2330    12.2815    63.7330 N.2        1          -0.3150
     19 N3         23.3585    13.0796    63.5045 N.pl3      1          -0.5062
     20 C16        22.9679    14.3895    63.4003 C.ar       1           0.1561
     21 C17        23.6539    15.5824    63.1794 C.ar       1          -0.1542
     22 C18        22.9676    16.7748    63.1250 C.ar       1          -0.0326
     23 C19        23.7219    18.0574    62.8859 C.3        1           0.0973
     24 N4         23.0104    18.8648    61.8862 N.3        1          -0.5329
     25 C20        22.8164    18.1096    60.6403 C.3        1           0.0162
     26 C21        22.0215    18.9622    59.6491 C.3        1          -0.0027
     27 N5         22.7518    20.2075    59.3782 N.4        1          -0.5085
     28 H1         23.6596    19.9884    58.9959 H          1           0.4258
     29 H2         22.2332    20.7639    58.7152 H          1           0.4340
     30 C22        22.9163    20.9623    60.6275 C.3        1          -0.0024
     31 C23        23.7186    20.1263    61.6270 C.3        1           0.0232
     32 C24        21.5905    16.8095    63.2830 C.ar       1          -0.1385
     33 H3         10.6150    14.4860    63.7226 H          1           0.0683
     34 H4         11.4069    13.6067    65.0523 H          1           0.0682
     35 H5         10.6873    15.2076    65.3481 H          1           0.0811
     36 H6         13.0837    14.6391    63.5450 H          1           0.0635
     37 H7         12.3639    16.2399    63.8410 H          1           0.0633
     38 H8         15.0281    14.5065    67.2402 H          1           0.1328
     39 H9         17.4502    14.4192    67.0113 H          1           0.1321
     40 H10        19.4749    14.8391    65.6528 H          1           0.1290
     41 H11        19.0569    16.5280    61.7364 H          1           0.1278
     42 H12        16.6400    16.6101    61.9822 H          1           0.1348
     43 H13        14.6227    16.1787    63.3386 H          1           0.1381
     44 H14        19.1182    13.2106    64.0019 H          1           0.4135
     45 H15        19.6793    11.6311    64.1170 H          1           0.4089
     46 H16        24.2706    12.7574    63.4312 H          1           0.4419
     47 H17        24.7261    15.5714    63.0507 H          1           0.1228
     48 H18        23.7943    18.6156    63.8192 H          1           0.1014
     49 H19        24.7232    17.8275    62.5216 H          1           0.0587
     50 H20        23.7869    17.8619    60.2104 H          1           0.0617
     51 H21        22.2675    17.1922    60.8528 H          1           0.1281
     52 H22        21.8888    18.4093    58.7191 H          1           0.1376
     53 H23        21.0457    19.1982    60.0737 H          1           0.1398
     54 H24        23.4467    21.8922    60.4230 H          1           0.1387
     55 H25        21.9359    21.1882    61.0472 H          1           0.1399
     56 H26        23.8280    20.6802    62.5593 H          1           0.1252
     57 H27        24.7040    19.9118    61.2132 H          1           0.0622
     58 H28        21.0674    17.7531    63.2331 H          1           0.1303
@<TRIPOS>BOND
     1    1    2 1
     2    1   33 1
     3    1   34 1
     4    1   35 1
     5    2    3 1
     6    2   36 1
     7    2   37 1
     8    3    4 1
     9    4   13 ar
    10    4    5 ar
    11    5    6 ar
    12    5   38 1
    13    6    7 ar
    14    6   39 1
    15    7   12 ar
    16    7    8 ar
    17    8    9 ar
    18    8   40 1
    19    9   10 ar
    20    9   14 1
    21   10   11 ar
    22   10   41 1
    23   11   12 ar
    24   11   42 1
    25   12   13 ar
    26   13   43 1
    27   14   32 ar
    28   14   15 ar
    29   15   20 ar
    30   15   16 1
    31   16   17 1
    32   16   18 2
    33   17   44 1
    34   17   45 1
    35   18   19 1
    36   19   20 1
    37   19   46 1
    38   20   21 ar
    39   21   22 ar
    40   21   47 1
    41   22   23 1
    42   22   32 ar
    43   23   24 1
    44   23   48 1
    45   23   49 1
    46   24   31 1
    47   24   25 1
    48   25   26 1
    49   25   50 1
    50   25   51 1
    51   26   27 1
    52   26   52 1
    53   26   53 1
    54   27   28 1
    55   27   29 1
    56   27   30 1
    57   30   31 1
    58   30   54 1
    59   30   55 1
    60   31   56 1
    61   31   57 1
    62   32   58 1
##########                 Name:                 1521
##########          Protonation:                   83
##########               SMILES:   CCOc1ccc2cc(ccc2c1)c3cc(cc4c3c(n[nH]4)N)CN5CC[NH2+]CC5
##########            Long Name:   4-(6-ethoxy-2-naphthyl)-6-(piperazin-4-ium-1-ylmethyl)-1H-indazol-3-amine
##########          FlexRecCode: 1
##########               Number:                   99
##########   Ligand Source File: /raid1/people/rgc/Examples/tdt/part3/ligand22set/build/ligand22set-0000001.db2.g
##########           GlobalRank: 2
##########                 Rank:                    4
##########               Setnum:                  136
##########             Matchnum:                52510
##########                Cloud:                    1
##########        Electrostatic:           -42.205120
##########        Van der Waals:           -33.432899
##########  Ligand Polar Desolv:            17.604122
########## Ligand Apolar Desolv:            -3.510574
##########      Internal Energy:             0.000000
##########      Receptor Energy: 0.0
########## Receptor Desolvation:             0.000000
########## Receptor Hydrophobic:             0.000000
##########         Total Energy: -61.54
##########        Ligand Charge:             1.000000
##########            Arbitrary:    +999.9990
##########     heavy atom count:   30
##########           pose count:   10
##########        Ligand Energy:             0.000000
# num electro vdwattr vdwrepu polsolv apolsol rdesolv rhydroe totalscore fullpol fullapo
#   1   -1.07   -1.29    0.20   -0.60   -0.14    0.00    0.00      -2.90   -0.93   -0.21
#   2    0.49   -1.57    0.47    0.15   -0.07    0.00    0.00      -0.54    0.24   -0.11
#   3   -3.30   -1.73    0.28   -0.52    0.58    0.00    0.00      -4.70   -0.80    0.88
#   4    1.73   -2.52    1.03    0.16   -0.20    0.00    0.00       0.21    0.25   -0.31
#   5   -1.57   -2.88    0.82   -0.89   -0.28    0.00    0.00      -4.81   -1.38   -0.43
#   6   -0.52   -2.69    0.55   -0.26   -0.30    0.00    0.00      -3.22   -0.40   -0.46
#   7   -1.08   -2.09    0.35   -0.45   -0.25    0.00    0.00      -3.52   -0.72   -0.40
#   8   -0.73   -2.16    0.66   -0.27   -0.25    0.00    0.00      -2.76   -0.48   -0.43
#   9   -0.85   -1.80    0.36   -0.29   -0.18    0.00    0.00      -2.75   -0.55   -0.34
#  10   -1.26   -3.00    1.90   -0.28   -0.17    0.00    0.00      -2.82   -0.53   -0.31
#  11   -1.53   -4.05    3.07   -0.39   -0.26    0.00    0.00      -3.17   -0.66   -0.45
#  12   -0.09   -2.59    0.67   -0.11   -0.24    0.00    0.00      -2.35   -0.18   -0.40
#  13   -2.16   -3.02    1.18   -0.32   -0.27    0.00    0.00      -4.59   -0.54   -0.45
#  14    0.26   -1.63    0.37    0.03   -0.17    0.00    0.00      -1.14    0.07   -0.37
#  15   -0.49   -1.76    0.47   -0.80   -0.23    0.00    0.00      -2.80   -1.49   -0.43
#  16    1.46   -2.40    0.49    0.67   -1.45    0.00    0.00      -1.23    1.07   -2.32
#  17   -1.78   -3.00    0.85   -2.46    0.56    0.00    0.00      -5.83   -3.79    0.86
#  18   -1.81   -5.27    4.44   -0.67    0.76    0.00    0.00      -2.54   -1.09    1.24
#  19    0.95   -3.64    2.69   -1.73    0.38    0.00    0.00      -1.35   -3.30    0.73
#  20   -0.06   -1.84    0.47    0.53   -0.38    0.00    0.00      -1.28    1.12   -0.80
#  21    0.34   -1.39    0.23   -0.70   -0.15    0.00    0.00      -1.67   -1.79   -0.37
#  22    0.09   -1.26    0.14    0.02   -0.14    0.00    0.00      -1.14    0.06   -0.34
#  23   -0.69   -0.81    0.09    0.73   -0.14    0.00    0.00      -0.82    1.98   -0.39
#  24    6.64   -0.97    0.05   -5.20    1.27    0.00    0.00       1.79  -13.10    3.21
#  25   -0.26   -0.95    0.19   -0.02   -0.15    0.00    0.00      -1.19   -0.05   -0.38
#  26    0.07   -1.80    0.68    0.40   -0.24    0.00    0.00      -0.88    0.82   -0.48
#  27   17.42   -4.63   10.05   -7.64    0.40    0.00    0.00      15.61  -16.96    0.89
#  28  -19.00   -0.28    0.24    7.14    0.24    0.00    0.00     -11.65   17.21    0.57
#  29  -16.91   -0.35    0.37    9.61    0.30    0.00    0.00      -6.98   18.40    0.57
#  30    0.06   -1.32    0.40    0.31   -0.18    0.00    0.00      -0.73    0.82   -0.48
#  31   -0.37   -0.72    0.08    0.10   -0.15    0.00    0.00      -1.05    0.29   -0.42
#  32   -0.18   -1.56    0.30   -0.69   -0.19    0.00    0.00      -2.32   -1.56   -0.43
#  33    0.34   -0.37    0.04    0.10   -0.14    0.00    0.00      -0.03    0.21   -0.28
#  34    0.48   -0.44    0.11    0.11   -0.14    0.00    0.00       0.11    0.23   -0.28
#  35    0.54   -0.52    0.23    0.51   -0.15    0.00    0.00       0.61    0.97   -0.28
#  36    0.69   -0.80    1.42    0.30   -0.12    0.00    0.00       1.49    0.65   -0.27
#  37    0.50   -0.80    0.60    0.36   -0.14    0.00    0.00       0.53    0.68   -0.27
#  38    0.55   -0.70    0.18    0.89   -0.13    0.00    0.00       0.78    1.52   -0.22
#  39    0.52   -0.67    0.13    1.57   -0.17    0.00    0.00       1.37    2.55   -0.28
#  40    1.09   -0.73    0.83    1.05   -0.12    0.00    0.00       2.11    2.35   -0.28
#  41    0.66   -0.65    0.40    0.26   -0.13    0.00    0.00       0.53    0.56   -0.28
#  42    0.98   -1.72    4.55    0.45   -0.18    0.00    0.00       4.08    0.70   -0.28
#  43    0.96   -1.03    1.38    0.08   -0.16    0.00    0.00       1.23    0.15   -0.28
#  44    1.62   -0.04    0.00    1.06    0.18    0.00    0.00       2.82    2.18    0.36
#  45   -1.41   -0.10    0.01    1.29    0.37    0.00    0.00       0.17    2.07    0.59
#  46   -3.11   -0.09    0.01    1.86    0.18    0.00    0.00      -1.15    4.26    0.40
#  47   -0.43   -0.21    0.02    0.69   -0.06    0.00    0.00       0.01    3.13   -0.28
#  48   -0.57   -0.52    0.17    0.64   -0.10    0.00    0.00      -0.38    1.77   -0.27
#  49   -0.47   -0.19    0.02    0.23   -0.04    0.00    0.00      -0.45    1.45   -0.28
#  50   -1.00   -0.30    0.06    0.65   -0.08    0.00    0.00      -0.67    2.27   -0.28
#  51   -1.38   -0.43    0.27    0.41   -0.06    0.00    0.00      -1.20    1.37   -0.21
#  52   -4.29   -1.26    2.05    3.06   -0.15    0.00    0.00      -0.59    5.60   -0.28
#  53   -3.13   -0.39    0.07    1.55   -0.12    0.00    0.00      -2.01    3.78   -0.28
#  54   -3.16   -0.36    0.09    1.86   -0.08    0.00    0.00      -1.66    6.15   -0.28
#  55   -3.77   -0.52    0.21    1.55   -0.11    0.00    0.00      -2.63    4.08   -0.28
#  56   -1.57   -0.39    0.14    0.55   -0.07    0.00    0.00      -1.34    2.21   -0.28
#  57   -0.89   -0.14    0.01    0.27   -0.04    0.00    0.00      -0.79    2.17   -0.28
#  58    0.24   -0.40    0.15    0.71   -0.09    0.00    0.00       0.60    2.15   -0.28

@<TRIPOS>MOLECULE
             1521        83
   58    62     0     0     0



@<TRIPOS>ATOM
      1 C1         11.3450    14.8073    64.8538 C.3        1          -0.1549
      2 C2         12.6781    15.4361    64.4437 C.3        1           0.0533
      3 O1         13.5009    15.6048    65.5999 O.3        1          -0.3135
      4 C3         14.8454    15.5393    65.4152 C.ar       1           0.1416
      5 C4         15.6613    15.0660    66.4477 C.ar       1          -0.1859
      6 C5         17.0100    14.9893    66.2926 C.ar       1          -0.0644
      7 C6         17.5968    15.3899    65.0782 C.ar       1          -0.0836
      8 C7         18.9852    15.3218    64.8878 C.ar       1          -0.0669
      9 C8         19.5272    15.7239    63.6801 C.ar       1          -0.0757
     10 C9         18.6992    16.1979    62.6483 C.ar       1          -0.0992
     11 C10        17.3538    16.2716    62.8135 C.ar       1          -0.1066
     12 C11        16.7712    15.8697    64.0297 C.ar       1          -0.0056
     13 C12        15.3817    15.9312    64.2214 C.ar       1          -0.1575
     14 C13        20.9923    15.6550    63.4733 C.ar       1           0.0523
     15 C14        21.6646    14.4204    63.5604 C.ar       1          -0.1779
     16 C15        21.2361    13.0499    63.8320 C.2        1           0.3683
     17 N1         19.9278    12.6302    64.0892 N.pl3      1          -0.8332
     18 N2         22.2969    12.2871    63.7906 N.2        1          -0.3150
     19 N3         23.4287    13.0577    63.5058 N.pl3      1          -0.5062
     20 C16        23.0559    14.3690    63.3619 C.ar       1           0.1561
     21 C17        23.7547    15.5416    63.0803 C.ar       1          -0.1542
     22 C18        23.0857    16.7422    62.9975 C.ar       1          -0.0326
     23 C19        23.8536    18.0025    62.6927 C.3        1           0.0973
     24 N4         23.1306    18.7838    61.6805 N.3        1          -0.5329
     25 C20        22.8949    17.9861    60.4687 C.3        1           0.0162
     26 C21        22.0895    18.8143    59.4653 C.3        1          -0.0027
     27 N5         22.8321    20.0365    59.1308 N.4        1          -0.5085
     28 H1         23.7269    19.7887    58.7357 H          1           0.4258
     29 H2         22.3063    20.5764    58.4599 H          1           0.4340
     30 C22        23.0384    20.8344    60.3467 C.3        1          -0.0024
     31 C23        23.8517    20.0231    61.3576 C.3        1           0.0232
     32 C24        21.7135    16.8051    63.1865 C.ar       1          -0.1385
     33 H3         10.7174    14.6786    63.9719 H          1           0.0683
     34 H4         11.5276    13.8365    65.3146 H          1           0.0682
     35 H5         10.8401    15.4587    65.5671 H          1           0.0811
     36 H6         13.1831    14.7847    63.7304 H          1           0.0635
     37 H7         12.4954    16.4070    63.9832 H          1           0.0633
     38 H8         15.2141    14.7577    67.3812 H          1           0.1328
     39 H9         17.6283    14.6226    67.0985 H          1           0.1321
     40 H10        19.6258    14.9587    65.6778 H          1           0.1290
     41 H11        19.1391    16.5078    61.7118 H          1           0.1278
     42 H12        16.7305    16.6383    62.0114 H          1           0.1348
     43 H13        14.7401    16.2903    63.4303 H          1           0.1381
     44 H14        19.2041    13.2761    64.0980 H          1           0.4135
     45 H15        19.7435    11.6930    64.2589 H          1           0.4089
     46 H16        24.3337    12.7182    63.4231 H          1           0.4419
     47 H17        24.8231    15.5083    62.9268 H          1           0.1228
     48 H18        23.9572    18.5938    63.6025 H          1           0.1014
     49 H19        24.8422    17.7430    62.3137 H          1           0.0587
     50 H20        23.8509    17.7069    60.0256 H          1           0.0617
     51 H21        22.3373    17.0863    60.7284 H          1           0.1281
     52 H22        21.9258    18.2294    58.5601 H          1           0.1376
     53 H23        21.1280    19.0817    59.9037 H          1           0.1398
     54 H24        23.5780    21.7474    60.0950 H          1           0.1387
     55 H25        22.0720    21.0916    60.7807 H          1           0.1399
     56 H26        23.9921    20.6093    62.2656 H          1           0.1252
     57 H27        24.8233    19.7774    60.9290 H          1           0.0622
     58 H28        21.2039    17.7546    63.1137 H          1           0.1303
@<TRIPOS>BOND
     1    1    2 1
     2    1   33 1
     3    1   34 1
     4    1   35 1
     5    2    3 1
     6    2   36 1
     7    2   37 1
     8    3    4 1
     9    4   13 ar
    10    4    5 ar
    11    5    6 ar
    12    5   38 1
    13    6    7 ar
    14    6   39 1
    15    7   12 ar
    16    7    8 ar
    17    8    9 ar
    18    8   40 1
    19    9   10 ar
    20    9   14 1
    21   10   11 ar
    22   10   41 1
    23   11   12 ar
    24   11   42 1
    25   12   13 ar
    26   13   43 1
    27   14   32 ar
    28   14   15 ar
    29   15   20 ar
    30   15   16 1
    31   16   17 1
    32   16   18 2
    33   17   44 1
    34   17   45 1
    35   18   19 1
    36   19   20 1
    37   19   46 1
    38   20   21 ar
    39   21   22 ar
    40   21   47 1
    41   22   23 1
    42   22   32 ar
    43   23   24 1
    44   23   48 1
    45   23   49 1
    46   24   31 1
    47   24   25 1
    48   25   26 1
    49   25   50 1
    50   25   51 1
    51   26   27 1
    52   26   52 1
    53   26   53 1
    54   27   28 1
    55   27   29 1
    56   27   30 1
    57   30   31 1
    58   30   54 1
    59   30   55 1
    60   31   56 1
    61   31   57 1
    62   32   58 1
##########                 Name:                 1521
##########          Protonation:                   83
##########               SMILES:   CCOc1ccc2cc(ccc2c1)c3cc(cc4c3c(n[nH]4)N)CN5CC[NH2+]CC5
##########            Long Name:   4-(6-ethoxy-2-naphthyl)-6-(piperazin-4-ium-1-ylmethyl)-1H-indazol-3-amine
##########          FlexRecCode: 1
##########               Number:                   99
##########   Ligand Source File: /raid1/people/rgc/Examples/tdt/part3/ligand22set/build/ligand22set-0000001.db2.g
##########           GlobalRank: 2
##########                 Rank:                    5
##########               Setnum:                  166
##########             Matchnum:                22472
##########                Cloud:                    1
##########        Electrostatic:           -32.706448
##########        Van der Waals:           -38.250568
##########  Ligand Polar Desolv:            13.298688
########## Ligand Apolar Desolv:            -3.778100
##########      Internal Energy:             0.000000
##########      Receptor Energy: 0.0
########## Receptor Desolvation:             0.000000
########## Receptor Hydrophobic:             0.000000
##########         Total Energy: -61.44
##########        Ligand Charge:             1.000000
##########            Arbitrary:    +999.9990
##########     heavy atom count:   30
##########           pose count:   10
##########        Ligand Energy:             0.000000
# num electro vdwattr vdwrepu polsolv apolsol rdesolv rhydroe totalscore fullpol fullapo
#   1   -1.02   -1.28    0.18   -0.60   -0.14    0.00    0.00      -2.86   -0.93   -0.21
#   2    0.48   -1.60    0.46    0.15   -0.07    0.00    0.00      -0.58    0.24   -0.11
#   3   -3.13   -1.75    0.35   -0.52    0.57    0.00    0.00      -4.48   -0.80    0.88
#   4    1.63   -2.67    1.64    0.16   -0.20    0.00    0.00       0.55    0.25   -0.31
#   5   -1.27   -3.19    1.30   -0.88   -0.27    0.00    0.00      -4.31   -1.38   -0.43
#   6   -0.40   -2.93    0.85   -0.26   -0.30    0.00    0.00      -3.04   -0.40   -0.46
#   7   -1.02   -2.14    0.40   -0.46   -0.25    0.00    0.00      -3.48   -0.72   -0.40
#   8   -0.71   -2.16    0.60   -0.28   -0.25    0.00    0.00      -2.80   -0.48   -0.43
#   9   -0.93   -1.95    0.49   -0.29   -0.18    0.00    0.00      -2.86   -0.55   -0.34
#  10   -1.67   -3.48    4.43   -0.29   -0.17    0.00    0.00      -1.17   -0.53   -0.31
#  11   -1.82   -3.95    2.88   -0.39   -0.26    0.00    0.00      -3.54   -0.66   -0.45
#  12   -0.09   -2.59    0.69   -0.11   -0.24    0.00    0.00      -2.33   -0.18   -0.40
#  13   -2.17   -2.97    1.14   -0.32   -0.27    0.00    0.00      -4.59   -0.54   -0.45
#  14    0.31   -1.83    0.55    0.03   -0.17    0.00    0.00      -1.12    0.07   -0.37
#  15   -0.56   -1.73    0.39   -0.80   -0.23    0.00    0.00      -2.92   -1.49   -0.43
#  16    1.38   -2.26    0.42    0.66   -1.44    0.00    0.00      -1.24    1.07   -2.32
#  17   -1.94   -2.84    0.70   -2.45    0.56    0.00    0.00      -5.97   -3.79    0.86
#  18   -1.68   -4.70    3.28   -0.67    0.76    0.00    0.00      -3.00   -1.09    1.24
#  19    0.76   -3.23    1.85   -1.73    0.38    0.00    0.00      -1.97   -3.30    0.73
#  20    0.04   -1.85    0.48    0.53   -0.38    0.00    0.00      -1.18    1.12   -0.80
#  21    0.19   -1.70    0.43   -0.73   -0.15    0.00    0.00      -1.96   -1.79   -0.37
#  22    0.04   -1.71    0.32    0.03   -0.15    0.00    0.00      -1.47    0.06   -0.34
#  23   -0.51   -1.57    0.52    0.82   -0.16    0.00    0.00      -0.90    1.98   -0.39
#  24    5.32   -0.98    0.07   -4.53    1.11    0.00    0.00       0.99  -13.10    3.21
#  25   -0.16   -0.70    0.08   -0.01   -0.11    0.00    0.00      -0.91   -0.05   -0.38
#  26    0.04   -0.65    0.13    0.23   -0.13    0.00    0.00      -0.38    0.82   -0.48
#  27   13.30   -1.84    1.24   -6.27    0.33    0.00    0.00       6.76  -16.96    0.89
#  28  -10.53   -0.03    0.00    5.51    0.18    0.00    0.00      -4.86   17.21    0.57
#  29  -15.95   -0.13    0.04    6.91    0.21    0.00    0.00      -8.91   18.40    0.57
#  30    0.06   -1.13    0.24    0.35   -0.21    0.00    0.00      -0.69    0.82   -0.48
#  31   -0.31   -0.69    0.04    0.12   -0.18    0.00    0.00      -1.02    0.29   -0.42
#  32   -0.43   -2.21    0.97   -0.71   -0.20    0.00    0.00      -2.57   -1.56   -0.43
#  33    0.29   -0.44    0.08    0.10   -0.13    0.00    0.00      -0.11    0.21   -0.28
#  34    0.46   -0.39    0.08    0.11   -0.13    0.00    0.00       0.12    0.23   -0.28
#  35    0.51   -0.46    0.15    0.51   -0.15    0.00    0.00       0.56    0.97   -0.28
#  36    0.72   -0.71    0.69    0.31   -0.13    0.00    0.00       0.88    0.65   -0.27
#  37    0.50   -0.88    0.90    0.36   -0.14    0.00    0.00       0.74    0.68   -0.27
#  38    0.33   -0.77    0.26    0.89   -0.13    0.00    0.00       0.58    1.52   -0.22
#  39    0.11   -0.72    0.20    1.57   -0.17    0.00    0.00       0.99    2.55   -0.28
#  40    1.01   -0.66    0.51    1.08   -0.13    0.00    0.00       1.81    2.35   -0.28
#  41    1.15   -0.68    0.69    0.24   -0.12    0.00    0.00       1.28    0.56   -0.28
#  42    1.23   -1.28    1.27    0.44   -0.18    0.00    0.00       1.49    0.70   -0.28
#  43    0.93   -1.09    1.75    0.08   -0.16    0.00    0.00       1.52    0.15   -0.28
#  44    1.76   -0.04    0.00    1.05    0.17    0.00    0.00       2.95    2.18    0.36
#  45   -0.94   -0.08    0.01    1.33    0.38    0.00    0.00       0.70    2.07    0.59
#  46   -2.81   -0.07    0.01    1.85    0.17    0.00    0.00      -0.85    4.26    0.40
#  47   -0.34   -0.30    0.06    0.77   -0.07    0.00    0.00       0.11    3.13   -0.28
#  48   -0.39   -0.72    0.25    0.82   -0.12    0.00    0.00      -0.16    1.77   -0.27
#  49   -0.47   -1.52    4.86    0.53   -0.10    0.00    0.00       3.30    1.45   -0.28
#  50   -0.62   -0.42    0.13    0.60   -0.07    0.00    0.00      -0.38    2.27   -0.28
#  51   -0.85   -0.24    0.06    0.25   -0.04    0.00    0.00      -0.82    1.37   -0.21
#  52   -1.63   -0.13    0.01    0.63   -0.03    0.00    0.00      -1.16    5.60   -0.28
#  53   -2.35   -0.23    0.07    0.62   -0.05    0.00    0.00      -1.93    3.78   -0.28
#  54   -3.72   -0.49    0.18    2.42   -0.11    0.00    0.00      -1.72    6.15   -0.28
#  55   -3.36   -0.44    0.13    1.47   -0.10    0.00    0.00      -2.30    4.08   -0.28
#  56   -1.16   -0.20    0.01    0.49   -0.06    0.00    0.00      -0.91    2.21   -0.28
#  57   -0.88   -0.34    0.06    0.68   -0.09    0.00    0.00      -0.57    2.17   -0.28
#  58    0.57   -0.70    0.66    0.87   -0.11    0.00    0.00       1.28    2.15   -0.28

@<TRIPOS>MOLECULE
             1521        83
   58    62     0     0     0



@<TRIPOS>ATOM
      1 C1         11.2232    14.7728    64.5598 C.3        1          -0.1549
      2 C2         12.5731    15.4503    64.3157 C.3        1           0.0533
      3 O1         13.3421    15.4278    65.5200 O.3        1          -0.3135
      4 C3         14.6937    15.3839    65.3882 C.ar       1           0.1416
      5 C4         15.4620    14.7472    66.3680 C.ar       1          -0.1859
      6 C5         16.8165    14.6875    66.2639 C.ar       1          -0.0644
      7 C6         17.4578    15.2723    65.1566 C.ar       1          -0.0836
      8 C7         18.8535    15.2265    65.0207 C.ar       1          -0.0669
      9 C8         19.4497    15.8121    63.9182 C.ar       1          -0.0757
     10 C9         18.6693    16.4493    62.9385 C.ar       1          -0.0992
     11 C10        17.3176    16.5044    63.0523 C.ar       1          -0.1066
     12 C11        16.6805    15.9180    64.1614 C.ar       1          -0.0056
     13 C12        15.2836    15.9571    64.2975 C.ar       1          -0.1575
     14 C13        20.9227    15.7675    63.7694 C.ar       1           0.0523
     15 C14        21.5915    14.5305    63.6893 C.ar       1          -0.1779
     16 C15        21.1523    13.1370    63.7197 C.2        1           0.3683
     17 N1         19.8339    12.6901    63.8474 N.pl3      1          -0.8332
     18 N2         22.2145    12.3837    63.6055 N.2        1          -0.3150
     19 N3         23.3574    13.1825    63.4985 N.pl3      1          -0.5062
     20 C16        22.9904    14.5025    63.5483 C.ar       1           0.1561
     21 C17        23.7003    15.7004    63.4887 C.ar       1          -0.1542
     22 C18        23.0347    16.9031    63.5679 C.ar       1          -0.0326
     23 C19        23.8147    18.1909    63.5026 C.3        1           0.0973
     24 N4         23.9295    18.6235    62.1035 N.3        1          -0.5329
     25 C20        24.7597    19.8312    61.9919 C.3        1           0.0162
     26 C21        24.9032    20.2134    60.5172 C.3        1          -0.0027
     27 N5         23.5736    20.4578    59.9429 N.4        1          -0.5085
     28 H1         23.1198    21.2021    60.4507 H          1           0.4258
     29 H2         23.6693    20.7216    58.9737 H          1           0.4340
     30 C22        22.7646    19.2355    60.0394 C.3        1          -0.0024
     31 C23        22.6032    18.8451    61.5102 C.3        1           0.0232
     32 C24        21.6553    16.9440    63.7022 C.ar       1          -0.1385
     33 H3         10.6367    14.7900    63.6412 H          1           0.0683
     34 H4         11.3855    13.7399    64.8680 H          1           0.0682
     35 H5         10.6857    15.3058    65.3441 H          1           0.0811
     36 H6         13.1107    14.9174    63.5314 H          1           0.0635
     37 H7         12.4108    16.4832    64.0078 H          1           0.0633
     38 H8         14.9729    14.2973    67.2194 H          1           0.1328
     39 H9         17.3977    14.1934    67.0283 H          1           0.1321
     40 H10        19.4576    14.7383    65.7710 H          1           0.1290
     41 H11        19.1512    16.9014    62.0842 H          1           0.1278
     42 H12        16.7313    16.9979    62.2914 H          1           0.1348
     43 H13        14.6785    16.4416    63.5454 H          1           0.1381
     44 H14        19.1101    13.3310    63.9262 H          1           0.4135
     45 H15        19.6429    11.7391    63.8573 H          1           0.4089
     46 H16        24.2656    12.8548    63.4038 H          1           0.4419
     47 H17        24.7747    15.6851    63.3804 H          1           0.1228
     48 H18        23.2979    18.9582    64.0790 H          1           0.1014
     49 H19        24.8105    18.0341    63.9174 H          1           0.0587
     50 H20        24.2866    20.6491    62.5353 H          1           0.0617
     51 H21        25.7453    19.6354    62.4144 H          1           0.1281
     52 H22        25.5069    21.1171    60.4333 H          1           0.1376
     53 H23        25.3887    19.4007    59.9768 H          1           0.1398
     54 H24        21.7827    19.4142    59.6010 H          1           0.1387
     55 H25        23.2610    18.4279    59.5014 H          1           0.1399
     56 H26        22.0156    17.9300    61.5812 H          1           0.1252
     57 H27        22.0947    19.6468    62.0455 H          1           0.0622
     58 H28        21.1487    17.8962    63.7585 H          1           0.1303
@<TRIPOS>BOND
     1    1    2 1
     2    1   33 1
     3    1   34 1
     4    1   35 1
     5    2    3 1
     6    2   36 1
     7    2   37 1
     8    3    4 1
     9    4   13 ar
    10    4    5 ar
    11    5    6 ar
    12    5   38 1
    13    6    7 ar
    14    6   39 1
    15    7   12 ar
    16    7    8 ar
    17    8    9 ar
    18    8   40 1
    19    9   10 ar
    20    9   14 1
    21   10   11 ar
    22   10   41 1
    23   11   12 ar
    24   11   42 1
    25   12   13 ar
    26   13   43 1
    27   14   32 ar
    28   14   15 ar
    29   15   20 ar
    30   15   16 1
    31   16   17 1
    32   16   18 2
    33   17   44 1
    34   17   45 1
    35   18   19 1
    36   19   20 1
    37   19   46 1
    38   20   21 ar
    39   21   22 ar
    40   21   47 1
    41   22   23 1
    42   22   32 ar
    43   23   24 1
    44   23   48 1
    45   23   49 1
    46   24   31 1
    47   24   25 1
    48   25   26 1
    49   25   50 1
    50   25   51 1
    51   26   27 1
    52   26   52 1
    53   26   53 1
    54   27   28 1
    55   27   29 1
    56   27   30 1
    57   30   31 1
    58   30   54 1
    59   30   55 1
    60   31   56 1
    61   31   57 1
    62   32   58 1
##########                 Name:                 1521
##########          Protonation:                   83
##########               SMILES:   CCOc1ccc2cc(ccc2c1)c3cc(cc4c3c(n[nH]4)N)CN5CC[NH2+]CC5
##########            Long Name:   4-(6-ethoxy-2-naphthyl)-6-(piperazin-4-ium-1-ylmethyl)-1H-indazol-3-amine
##########          FlexRecCode: 1
##########               Number:                  100
##########   Ligand Source File: /raid1/people/rgc/Examples/tdt/part3/ligand22set/build/ligand22set-0000001.db2.g
##########           GlobalRank: 2
##########                 Rank:                    1
##########               Setnum:                  166
##########             Matchnum:                32956
##########                Cloud:                    1
##########        Electrostatic:           -37.288750
##########        Van der Waals:           -37.051773
##########  Ligand Polar Desolv:            17.719473
########## Ligand Apolar Desolv:            -3.782287
##########      Internal Energy:             0.000000
##########      Receptor Energy: 0.0
########## Receptor Desolvation:             0.000000
########## Receptor Hydrophobic:             0.000000
##########         Total Energy: -60.4
##########        Ligand Charge:             1.000000
##########            Arbitrary:    +999.9990
##########     heavy atom count:   30
##########           pose count:   10
##########        Ligand Energy:             0.000000
# num electro vdwattr vdwrepu polsolv apolsol rdesolv rhydroe totalscore fullpol fullapo
#   1   -0.94   -1.41    0.30   -0.59   -0.13    0.00    0.00      -2.77   -0.93   -0.21
#   2    0.44   -1.38    0.28    0.16   -0.07    0.00    0.00      -0.58    0.24   -0.11
#   3   -2.93   -1.86    0.31   -0.52    0.57    0.00    0.00      -4.43   -0.80    0.88
#   4    1.52   -2.41    0.83    0.16   -0.20    0.00    0.00      -0.10    0.25   -0.31
#   5   -1.26   -3.19    0.94   -0.89   -0.28    0.00    0.00      -4.68   -1.38   -0.43
#   6   -0.42   -3.06    0.81   -0.26   -0.30    0.00    0.00      -3.23   -0.40   -0.46
#   7   -1.05   -2.28    0.45   -0.47   -0.26    0.00    0.00      -3.61   -0.72   -0.40
#   8   -0.79   -2.16    0.44   -0.29   -0.26    0.00    0.00      -3.05   -0.48   -0.43
#   9   -1.10   -2.07    0.55   -0.30   -0.19    0.00    0.00      -3.11   -0.55   -0.34
#  10   -1.67   -3.49    3.06   -0.30   -0.18    0.00    0.00      -2.57   -0.53   -0.31
#  11   -1.65   -3.88    1.95   -0.40   -0.27    0.00    0.00      -4.24   -0.66   -0.45
#  12   -0.09   -2.67    0.80   -0.11   -0.24    0.00    0.00      -2.30   -0.18   -0.40
#  13   -2.01   -2.73    1.04   -0.33   -0.27    0.00    0.00      -4.30   -0.54   -0.45
#  14    0.45   -1.90    0.56    0.03   -0.18    0.00    0.00      -1.05    0.07   -0.37
#  15   -0.78   -1.67    0.33   -0.84   -0.24    0.00    0.00      -3.19   -1.49   -0.43
#  16    1.45   -2.17    0.43    0.67   -1.44    0.00    0.00      -1.07    1.07   -2.32
#  17   -1.67   -3.30    1.45   -2.39    0.54    0.00    0.00      -5.36   -3.79    0.86
#  18   -1.62   -3.57    1.36   -0.69    0.78    0.00    0.00      -3.73   -1.09    1.24
#  19   -0.33   -2.60    0.78   -1.77    0.39    0.00    0.00      -3.52   -3.30    0.73
#  20    0.20   -1.76    0.44    0.54   -0.38    0.00    0.00      -0.97    1.12   -0.80
#  21    0.13   -1.49    0.25   -0.74   -0.15    0.00    0.00      -2.00   -1.79   -0.37
#  22    0.02   -1.55    0.25    0.03   -0.15    0.00    0.00      -1.40    0.06   -0.34
#  23   -0.57   -1.05    0.12    0.83   -0.16    0.00    0.00      -0.83    1.98   -0.39
#  24    6.48   -0.96    0.05   -5.21    1.28    0.00    0.00       1.63  -13.10    3.21
#  25   -0.25   -0.69    0.07   -0.02   -0.13    0.00    0.00      -1.02   -0.05   -0.38
#  26    0.07   -1.55    1.52    0.29   -0.17    0.00    0.00       0.16    0.82   -0.48
#  27   16.29   -3.86    6.70   -7.68    0.40    0.00    0.00      11.85  -16.96    0.89
#  28  -13.58   -0.07    0.01    6.96    0.23    0.00    0.00      -6.46   17.21    0.57
#  29  -17.74   -0.26    0.13    9.71    0.30    0.00    0.00      -7.85   18.40    0.57
#  30    0.06   -1.68    0.63    0.42   -0.24    0.00    0.00      -0.82    0.82   -0.48
#  31   -0.34   -0.84    0.07    0.14   -0.20    0.00    0.00      -1.17    0.29   -0.42
#  32   -0.86   -2.54    1.57   -0.72   -0.20    0.00    0.00      -2.75   -1.56   -0.43
#  33    0.27   -0.40    0.08    0.11   -0.15    0.00    0.00      -0.08    0.21   -0.28
#  34    0.44   -0.59    0.31    0.12   -0.15    0.00    0.00       0.14    0.23   -0.28
#  35    0.47   -0.67    0.72    0.52   -0.15    0.00    0.00       0.89    0.97   -0.28
#  36    0.59   -0.53    0.43    0.28   -0.12    0.00    0.00       0.65    0.65   -0.27
#  37    0.51   -0.74    0.59    0.34   -0.13    0.00    0.00       0.56    0.68   -0.27
#  38    0.35   -0.96    0.50    0.92   -0.13    0.00    0.00       0.67    1.52   -0.22
#  39    0.21   -0.76    0.18    1.59   -0.18    0.00    0.00       1.04    2.55   -0.28
#  40    1.11   -0.61    0.34    1.14   -0.14    0.00    0.00       1.85    2.35   -0.28
#  41    1.35   -0.84    0.86    0.27   -0.14    0.00    0.00       1.50    0.56   -0.28
#  42    0.61   -1.69    3.51    0.45   -0.18    0.00    0.00       2.71    0.70   -0.28
#  43    1.17   -0.71    0.39    0.08   -0.15    0.00    0.00       0.78    0.15   -0.28
#  44    1.91   -0.05    0.00    1.01    0.17    0.00    0.00       3.04    2.18    0.36
#  45   -1.78   -0.10    0.01    1.29    0.37    0.00    0.00      -0.22    2.07    0.59
#  46   -1.44   -0.05    0.00    1.88    0.18    0.00    0.00       0.56    4.26    0.40
#  47   -0.34   -0.24    0.03    0.75   -0.07    0.00    0.00       0.12    3.13   -0.28
#  48   -0.56   -0.55    0.12    0.79   -0.12    0.00    0.00      -0.32    1.77   -0.27
#  49   -0.36   -0.47    0.16    0.48   -0.09    0.00    0.00      -0.27    1.45   -0.28
#  50   -1.07   -0.48    0.36    0.58   -0.07    0.00    0.00      -0.68    2.27   -0.28
#  51   -1.35   -0.15    0.01    0.21   -0.03    0.00    0.00      -1.32    1.37   -0.21
#  52   -3.10   -0.43    0.36    1.35   -0.07    0.00    0.00      -1.88    5.60   -0.28
#  53   -3.93   -0.74    1.31    1.06   -0.08    0.00    0.00      -2.38    3.78   -0.28
#  54   -3.69   -0.83    0.78    2.89   -0.13    0.00    0.00      -0.98    6.15   -0.28
#  55   -3.57   -0.62    0.25    1.91   -0.13    0.00    0.00      -2.15    4.08   -0.28
#  56   -1.07   -0.26    0.03    0.68   -0.09    0.00    0.00      -0.71    2.21   -0.28
#  57   -0.92   -0.38    0.09    0.73   -0.09    0.00    0.00      -0.58    2.17   -0.28
#  58    1.44   -1.33    4.31    0.89   -0.12    0.00    0.00       5.19    2.15   -0.28

@<TRIPOS>MOLECULE
             1521        83
   58    62     0     0     0



@<TRIPOS>ATOM
      1 C1         10.7549    14.5476    65.2435 C.3        1          -0.1549
      2 C2         12.0552    15.2539    64.8548 C.3        1           0.0533
      3 O1         12.8887    15.3860    66.0080 O.3        1          -0.3135
      4 C3         14.2317    15.3866    65.8018 C.ar       1           0.1416
      5 C4         15.0820    14.8857    66.7928 C.ar       1          -0.1859
      6 C5         16.4300    14.8735    66.6154 C.ar       1          -0.0644
      7 C6         16.9813    15.3701    65.4200 C.ar       1          -0.0836
      8 C7         18.3681    15.3702    65.2074 C.ar       1          -0.0669
      9 C8         18.8746    15.8662    64.0193 C.ar       1          -0.0757
     10 C9         18.0122    16.3673    63.0292 C.ar       1          -0.0992
     11 C10        16.6676    16.3759    63.2164 C.ar       1          -0.1066
     12 C11        16.1208    15.8781    64.4136 C.ar       1          -0.0056
     13 C12        14.7331    15.8713    64.6271 C.ar       1          -0.1575
     14 C13        20.3378    15.8696    63.7892 C.ar       1           0.0523
     15 C14        21.0601    14.6605    63.7921 C.ar       1          -0.1779
     16 C15        20.6910    13.2597    63.9856 C.2        1           0.3683
     17 N1         19.4046    12.7723    64.2341 N.pl3      1          -0.8332
     18 N2         21.7806    12.5447    63.8838 N.2        1          -0.3150
     19 N3         22.8761    13.3765    63.6314 N.pl3      1          -0.5062
     20 C16        22.4490    14.6779    63.5724 C.ar       1           0.1561
     21 C17        23.0960    15.8928    63.3533 C.ar       1          -0.1542
     22 C18        22.3784    17.0679    63.3527 C.ar       1          -0.0326
     23 C19        23.0906    18.3746    63.1150 C.3        1           0.0973
     24 N4         23.1082    18.6679    61.6757 N.3        1          -0.5329
     25 C20        23.8719    19.8924    61.3969 C.3        1           0.0162
     26 C21        23.9164    20.1292    59.8858 C.3        1          -0.0027
     27 N5         22.5473    20.2574    59.3695 N.4        1          -0.5085
     28 H1         22.0863    21.0293    59.8273 H          1           0.4258
     29 H2         22.5774    20.4257    58.3751 H          1           0.4340
     30 C22        21.8047    19.0178    59.6335 C.3        1          -0.0024
     31 C23        21.7425    18.7716    61.1425 C.3        1           0.0232
     32 C24        21.0079    17.0634    63.5633 C.ar       1          -0.1385
     33 H3         10.1192    14.4468    64.3639 H          1           0.0683
     34 H4         10.9833    13.5591    65.6419 H          1           0.0682
     35 H5         10.2356    15.1338    66.0017 H          1           0.0811
     36 H6         12.5745    14.6678    64.0965 H          1           0.0635
     37 H7         11.8268    16.2425    64.4566 H          1           0.0633
     38 H8         14.6621    14.5037    67.7116 H          1           0.1328
     39 H9         17.0751    14.4844    67.3893 H          1           0.1321
     40 H10        19.0349    14.9867    65.9653 H          1           0.1290
     41 H11        18.4246    16.7507    62.1077 H          1           0.1278
     42 H12        16.0177    16.7645    62.4465 H          1           0.1348
     43 H13        14.0654    16.2510    63.8679 H          1           0.1381
     44 H14        18.6561    13.3864    64.2918 H          1           0.4135
     45 H15        19.2605    11.8200    64.3489 H          1           0.4089
     46 H16        23.7925    13.0799    63.5162 H          1           0.4419
     47 H17        24.1624    15.9125    63.1840 H          1           0.1228
     48 H18        22.5695    19.1736    63.6423 H          1           0.1014
     49 H19        24.1139    18.3031    63.4838 H          1           0.0587
     50 H20        23.3901    20.7402    61.8839 H          1           0.0617
     51 H21        24.8872    19.7825    61.7779 H          1           0.1281
     52 H22        24.4703    21.0447    59.6777 H          1           0.1376
     53 H23        24.4106    19.2875    59.4005 H          1           0.1398
     54 H24        20.7930    19.1092    59.2382 H          1           0.1387
     55 H25        22.3095    18.1818    59.1495 H          1           0.1399
     56 H26        21.2044    17.8442    61.3378 H          1           0.1252
     57 H27        21.2257    19.6010    61.6252 H          1           0.0622
     58 H28        20.4598    17.9940    63.5552 H          1           0.1303
@<TRIPOS>BOND
     1    1    2 1
     2    1   33 1
     3    1   34 1
     4    1   35 1
     5    2    3 1
     6    2   36 1
     7    2   37 1
     8    3    4 1
     9    4   13 ar
    10    4    5 ar
    11    5    6 ar
    12    5   38 1
    13    6    7 ar
    14    6   39 1
    15    7   12 ar
    16    7    8 ar
    17    8    9 ar
    18    8   40 1
    19    9   10 ar
    20    9   14 1
    21   10   11 ar
    22   10   41 1
    23   11   12 ar
    24   11   42 1
    25   12   13 ar
    26   13   43 1
    27   14   32 ar
    28   14   15 ar
    29   15   20 ar
    30   15   16 1
    31   16   17 1
    32   16   18 2
    33   17   44 1
    34   17   45 1
    35   18   19 1
    36   19   20 1
    37   19   46 1
    38   20   21 ar
    39   21   22 ar
    40   21   47 1
    41   22   23 1
    42   22   32 ar
    43   23   24 1
    44   23   48 1
    45   23   49 1
    46   24   31 1
    47   24   25 1
    48   25   26 1
    49   25   50 1
    50   25   51 1
    51   26   27 1
    52   26   52 1
    53   26   53 1
    54   27   28 1
    55   27   29 1
    56   27   30 1
    57   30   31 1
    58   30   54 1
    59   30   55 1
    60   31   56 1
    61   31   57 1
    62   32   58 1
##########                 Name:                 1521
##########          Protonation:                   83
##########               SMILES:   CCOc1ccc2cc(ccc2c1)c3cc(cc4c3c(n[nH]4)N)CN5CC[NH2+]CC5
##########            Long Name:   4-(6-ethoxy-2-naphthyl)-6-(piperazin-4-ium-1-ylmethyl)-1H-indazol-3-amine
##########          FlexRecCode: 1
##########               Number:                  100
##########   Ligand Source File: /raid1/people/rgc/Examples/tdt/part3/ligand22set/build/ligand22set-0000001.db2.g
##########           GlobalRank: 3
##########                 Rank:                    2
##########               Setnum:                  102
##########             Matchnum:                32956
##########                Cloud:                    1
##########        Electrostatic:           -27.860207
##########        Van der Waals:           -37.754105
##########  Ligand Polar Desolv:            12.200312
########## Ligand Apolar Desolv:            -3.898658
##########      Internal Energy:             0.000000
##########      Receptor Energy: 0.0
########## Receptor Desolvation:             0.000000
########## Receptor Hydrophobic:             0.000000
##########         Total Energy: -57.31
##########        Ligand Charge:             1.000000
##########            Arbitrary:    +999.9990
##########     heavy atom count:   30
##########           pose count:   10
##########        Ligand Energy:             0.000000
# num electro vdwattr vdwrepu polsolv apolsol rdesolv rhydroe totalscore fullpol fullapo
#   1   -0.94   -1.41    0.30   -0.59   -0.13    0.00    0.00      -2.77   -0.93   -0.21
#   2    0.44   -1.38    0.28    0.16   -0.07    0.00    0.00      -0.58    0.24   -0.11
#   3   -2.93   -1.86    0.31   -0.52    0.57    0.00    0.00      -4.43   -0.80    0.88
#   4    1.52   -2.41    0.83    0.16   -0.20    0.00    0.00      -0.10    0.25   -0.31
#   5   -1.26   -3.19    0.94   -0.89   -0.28    0.00    0.00      -4.68   -1.38   -0.43
#   6   -0.42   -3.06    0.81   -0.26   -0.30    0.00    0.00      -3.23   -0.40   -0.46
#   7   -1.05   -2.28    0.45   -0.47   -0.26    0.00    0.00      -3.61   -0.72   -0.40
#   8   -0.79   -2.16    0.44   -0.29   -0.26    0.00    0.00      -3.05   -0.48   -0.43
#   9   -1.10   -2.07    0.55   -0.30   -0.19    0.00    0.00      -3.11   -0.55   -0.34
#  10   -1.67   -3.49    3.06   -0.30   -0.18    0.00    0.00      -2.57   -0.53   -0.31
#  11   -1.65   -3.88    1.95   -0.40   -0.27    0.00    0.00      -4.24   -0.66   -0.45
#  12   -0.09   -2.67    0.80   -0.11   -0.24    0.00    0.00      -2.30   -0.18   -0.40
#  13   -2.01   -2.73    1.04   -0.33   -0.27    0.00    0.00      -4.30   -0.54   -0.45
#  14    0.45   -1.90    0.56    0.03   -0.18    0.00    0.00      -1.05    0.07   -0.37
#  15   -0.78   -1.67    0.33   -0.84   -0.24    0.00    0.00      -3.19   -1.49   -0.43
#  16    1.45   -2.17    0.43    0.67   -1.44    0.00    0.00      -1.07    1.07   -2.32
#  17   -1.67   -3.30    1.45   -2.39    0.54    0.00    0.00      -5.36   -3.79    0.86
#  18   -1.62   -3.57    1.36   -0.69    0.78    0.00    0.00      -3.73   -1.09    1.24
#  19   -0.33   -2.60    0.78   -1.77    0.39    0.00    0.00      -3.52   -3.30    0.73
#  20    0.20   -1.76    0.44    0.54   -0.38    0.00    0.00      -0.97    1.12   -0.80
#  21    0.13   -1.49    0.25   -0.74   -0.15    0.00    0.00      -2.00   -1.79   -0.37
#  22    0.02   -1.55    0.25    0.03   -0.15    0.00    0.00      -1.40    0.06   -0.34
#  23   -0.57   -1.05    0.12    0.83   -0.16    0.00    0.00      -0.83    1.98   -0.39
#  24    5.09   -0.90    0.06   -4.42    1.08    0.00    0.00       0.91  -13.10    3.21
#  25   -0.17   -0.59    0.05   -0.01   -0.10    0.00    0.00      -0.83   -0.05   -0.38
#  26    0.03   -0.45    0.04    0.19   -0.11    0.00    0.00      -0.31    0.82   -0.48
#  27   11.03   -2.44    3.49   -5.51    0.29    0.00    0.00       6.86  -16.96    0.89
#  28  -14.16   -0.11    0.03    5.26    0.17    0.00    0.00      -8.80   17.21    0.57
#  29   -8.84   -0.07    0.01    5.80    0.18    0.00    0.00      -2.92   18.40    0.57
#  30    0.04   -1.47    0.71    0.31   -0.18    0.00    0.00      -0.60    0.82   -0.48
#  31   -0.32   -0.78    0.12    0.10   -0.15    0.00    0.00      -1.03    0.29   -0.42
#  32   -0.86   -2.54    1.57   -0.72   -0.20    0.00    0.00      -2.75   -1.56   -0.43
#  33    0.27   -0.40    0.08    0.11   -0.15    0.00    0.00      -0.08    0.21   -0.28
#  34    0.44   -0.59    0.31    0.12   -0.15    0.00    0.00       0.14    0.23   -0.28
#  35    0.47   -0.67    0.72    0.52   -0.15    0.00    0.00       0.89    0.97   -0.28
#  36    0.59   -0.53    0.43    0.28   -0.12    0.00    0.00       0.65    0.65   -0.27
#  37    0.51   -0.74    0.59    0.34   -0.13    0.00    0.00       0.56    0.68   -0.27
#  38    0.35   -0.96    0.50    0.92   -0.13    0.00    0.00       0.67    1.52   -0.22
#  39    0.21   -0.76    0.18    1.59   -0.18    0.00    0.00       1.04    2.55   -0.28
#  40    1.11   -0.61    0.34    1.14   -0.14    0.00    0.00       1.85    2.35   -0.28
#  41    1.35   -0.84    0.86    0.27   -0.14    0.00    0.00       1.50    0.56   -0.28
#  42    0.61   -1.69    3.51    0.45   -0.18    0.00    0.00       2.71    0.70   -0.28
#  43    1.17   -0.71    0.39    0.08   -0.15    0.00    0.00       0.78    0.15   -0.28
#  44    1.91   -0.05    0.00    1.01    0.17    0.00    0.00       3.04    2.18    0.36
#  45   -1.78   -0.10    0.01    1.29    0.37    0.00    0.00      -0.22    2.07    0.59
#  46   -1.44   -0.05    0.00    1.88    0.18    0.00    0.00       0.56    4.26    0.40
#  47   -0.34   -0.24    0.03    0.75   -0.07    0.00    0.00       0.12    3.13   -0.28
#  48   -0.85   -0.36    0.05    0.64   -0.10    0.00    0.00      -0.62    1.77   -0.27
#  49   -0.24   -0.67    0.24    0.63   -0.12    0.00    0.00      -0.17    1.45   -0.28
#  50   -0.89   -0.19    0.02    0.43   -0.05    0.00    0.00      -0.69    2.27   -0.28
#  51   -0.88   -0.32    0.09    0.32   -0.05    0.00    0.00      -0.83    1.37   -0.21
#  52   -1.22   -0.10    0.01    0.52   -0.03    0.00    0.00      -0.82    5.60   -0.28
#  53   -1.00   -0.09    0.00    0.34   -0.03    0.00    0.00      -0.78    3.78   -0.28
#  54   -3.05   -1.28    2.64    2.86   -0.13    0.00    0.00       1.04    6.15   -0.28
#  55   -1.42   -0.28    0.06    1.15   -0.08    0.00    0.00      -0.58    4.08   -0.28
#  56   -1.21   -0.38    0.22    0.58   -0.07    0.00    0.00      -0.87    2.21   -0.28
#  57   -1.14   -0.22    0.01    0.57   -0.07    0.00    0.00      -0.84    2.17   -0.28
#  58    1.44   -1.33    4.31    0.89   -0.12    0.00    0.00       5.19    2.15   -0.28

@<TRIPOS>MOLECULE
             1521        83
   58    62     0     0     0



@<TRIPOS>ATOM
      1 C1         10.7549    14.5476    65.2435 C.3        1          -0.1549
      2 C2         12.0552    15.2539    64.8548 C.3        1           0.0533
      3 O1         12.8887    15.3860    66.0080 O.3        1          -0.3135
      4 C3         14.2317    15.3866    65.8018 C.ar       1           0.1416
      5 C4         15.0820    14.8857    66.7928 C.ar       1          -0.1859
      6 C5         16.4300    14.8735    66.6154 C.ar       1          -0.0644
      7 C6         16.9813    15.3701    65.4200 C.ar       1          -0.0836
      8 C7         18.3681    15.3702    65.2074 C.ar       1          -0.0669
      9 C8         18.8746    15.8662    64.0193 C.ar       1          -0.0757
     10 C9         18.0122    16.3673    63.0292 C.ar       1          -0.0992
     11 C10        16.6676    16.3759    63.2164 C.ar       1          -0.1066
     12 C11        16.1208    15.8781    64.4136 C.ar       1          -0.0056
     13 C12        14.7331    15.8713    64.6271 C.ar       1          -0.1575
     14 C13        20.3378    15.8696    63.7892 C.ar       1           0.0523
     15 C14        21.0601    14.6605    63.7921 C.ar       1          -0.1779
     16 C15        20.6910    13.2597    63.9856 C.2        1           0.3683
     17 N1         19.4046    12.7723    64.2341 N.pl3      1          -0.8332
     18 N2         21.7806    12.5447    63.8838 N.2        1          -0.3150
     19 N3         22.8761    13.3765    63.6314 N.pl3      1          -0.5062
     20 C16        22.4490    14.6779    63.5724 C.ar       1           0.1561
     21 C17        23.0960    15.8928    63.3533 C.ar       1          -0.1542
     22 C18        22.3784    17.0679    63.3527 C.ar       1          -0.0326
     23 C19        23.0906    18.3746    63.1150 C.3        1           0.0973
     24 N4         24.0206    18.2274    61.9875 N.3        1          -0.5329
     25 C20        24.7979    19.4577    61.7816 C.3        1           0.0162
     26 C21        25.7937    19.2432    60.6398 C.3        1          -0.0027
     27 N5         25.0650    18.8932    59.4134 N.4        1          -0.5085
     28 H1         24.4247    19.6369    59.1790 H          1           0.4258
     29 H2         25.7212    18.7638    58.6580 H          1           0.4340
     30 C22        24.3132    17.6495    59.6267 C.3        1          -0.0024
     31 C23        23.3050    17.8506    60.7602 C.3        1           0.0232
     32 C24        21.0079    17.0634    63.5633 C.ar       1          -0.1385
     33 H3         10.1192    14.4468    64.3639 H          1           0.0683
     34 H4         10.9833    13.5591    65.6419 H          1           0.0682
     35 H5         10.2356    15.1338    66.0017 H          1           0.0811
     36 H6         12.5745    14.6678    64.0965 H          1           0.0635
     37 H7         11.8268    16.2425    64.4566 H          1           0.0633
     38 H8         14.6621    14.5037    67.7116 H          1           0.1328
     39 H9         17.0751    14.4844    67.3893 H          1           0.1321
     40 H10        19.0349    14.9867    65.9653 H          1           0.1290
     41 H11        18.4246    16.7507    62.1077 H          1           0.1278
     42 H12        16.0177    16.7645    62.4465 H          1           0.1348
     43 H13        14.0654    16.2510    63.8679 H          1           0.1381
     44 H14        18.6561    13.3864    64.2918 H          1           0.4135
     45 H15        19.2605    11.8200    64.3489 H          1           0.4089
     46 H16        23.7925    13.0799    63.5162 H          1           0.4419
     47 H17        24.1624    15.9125    63.1840 H          1           0.1228
     48 H18        22.3600    19.1499    62.8846 H          1           0.1014
     49 H19        23.6463    18.6537    64.0102 H          1           0.0587
     50 H20        24.1237    20.2756    61.5274 H          1           0.0617
     51 H21        25.3393    19.7029    62.6953 H          1           0.1281
     52 H22        26.3615    20.1592    60.4761 H          1           0.1376
     53 H23        26.4764    18.4344    60.9002 H          1           0.1398
     54 H24        23.7834    17.3837    58.7120 H          1           0.1387
     55 H25        25.0035    16.8487    59.8924 H          1           0.1399
     56 H26        22.7574    16.9233    60.9286 H          1           0.1252
     57 H27        22.6063    18.6419    60.4891 H          1           0.0622
     58 H28        20.4598    17.9940    63.5552 H          1           0.1303
@<TRIPOS>BOND
     1    1    2 1
     2    1   33 1
     3    1   34 1
     4    1   35 1
     5    2    3 1
     6    2   36 1
     7    2   37 1
     8    3    4 1
     9    4   13 ar
    10    4    5 ar
    11    5    6 ar
    12    5   38 1
    13    6    7 ar
    14    6   39 1
    15    7   12 ar
    16    7    8 ar
    17    8    9 ar
    18    8   40 1
    19    9   10 ar
    20    9   14 1
    21   10   11 ar
    22   10   41 1
    23   11   12 ar
    24   11   42 1
    25   12   13 ar
    26   13   43 1
    27   14   32 ar
    28   14   15 ar
    29   15   20 ar
    30   15   16 1
    31   16   17 1
    32   16   18 2
    33   17   44 1
    34   17   45 1
    35   18   19 1
    36   19   20 1
    37   19   46 1
    38   20   21 ar
    39   21   22 ar
    40   21   47 1
    41   22   23 1
    42   22   32 ar
    43   23   24 1
    44   23   48 1
    45   23   49 1
    46   24   31 1
    47   24   25 1
    48   25   26 1
    49   25   50 1
    50   25   51 1
    51   26   27 1
    52   26   52 1
    53   26   53 1
    54   27   28 1
    55   27   29 1
    56   27   30 1
    57   30   31 1
    58   30   54 1
    59   30   55 1
    60   31   56 1
    61   31   57 1
    62   32   58 1
##########                 Name:                 1521
##########          Protonation:                   14
##########               SMILES:   CCOc1ccc2cc(ccc2c1)c3cc(cc4c3c(n[nH]4)N)C[NH+]5CCNCC5
##########            Long Name:   4-(6-ethoxy-2-naphthyl)-6-(piperazin-1-ium-1-ylmethyl)-1H-indazol-3-amine
##########          FlexRecCode: 1
##########               Number:                  248
##########   Ligand Source File: /raid1/people/rgc/Examples/tdt/part3/ligand22set/build/ligand22set-0000001.db2.g
##########           GlobalRank: 3
##########                 Rank:                    1
##########               Setnum:                  148
##########             Matchnum:                22480
##########                Cloud:                    1
##########        Electrostatic:           -19.112448
##########        Van der Waals:           -38.463017
##########  Ligand Polar Desolv:             8.759271
########## Ligand Apolar Desolv:            -4.145713
##########      Internal Energy:             0.000000
##########      Receptor Energy: 0.0
########## Receptor Desolvation:             0.000000
########## Receptor Hydrophobic:             0.000000
##########         Total Energy: -52.96
##########        Ligand Charge:             1.000000
##########            Arbitrary:    +999.9990
##########     heavy atom count:   30
##########           pose count:   10
##########        Ligand Energy:             0.000000
# num electro vdwattr vdwrepu polsolv apolsol rdesolv rhydroe totalscore fullpol fullapo
#   1   -1.02   -1.28    0.18   -0.64   -0.14    0.00    0.00      -2.89   -0.98   -0.21
#   2    0.48   -1.60    0.46    0.17   -0.07    0.00    0.00      -0.57    0.28   -0.11
#   3   -3.12   -1.75    0.35   -0.69    0.57    0.00    0.00      -4.63   -1.05    0.88
#   4    1.68   -2.67    1.64    0.20   -0.20    0.00    0.00       0.65    0.31   -0.31
#   5   -1.26   -3.18    1.30   -1.15   -0.27    0.00    0.00      -4.56   -1.81   -0.43
#   6   -0.41   -2.93    0.85   -0.30   -0.30    0.00    0.00      -3.08   -0.46   -0.46
#   7   -1.04   -2.14    0.40   -0.69   -0.25    0.00    0.00      -3.73   -1.09   -0.40
#   8   -0.69   -2.16    0.60   -0.38   -0.25    0.00    0.00      -2.88   -0.66   -0.43
#   9   -1.06   -1.95    0.49   -0.48   -0.18    0.00    0.00      -3.18   -0.91   -0.34
#  10   -1.70   -3.48    4.42   -0.45   -0.17    0.00    0.00      -1.37   -0.84   -0.31
#  11   -1.75   -3.95    2.88   -0.64   -0.26    0.00    0.00      -3.72   -1.09   -0.45
#  12   -0.05   -2.59    0.69   -0.16   -0.24    0.00    0.00      -2.34   -0.27   -0.40
#  13   -2.18   -2.97    1.14   -0.51   -0.27    0.00    0.00      -4.79   -0.85   -0.45
#  14    0.40   -1.83    0.55    0.07   -0.17    0.00    0.00      -0.99    0.15   -0.37
#  15   -0.52   -1.73    0.39   -1.39   -0.23    0.00    0.00      -3.47   -2.60   -0.43
#  16    1.38   -2.26    0.42    1.32   -1.44    0.00    0.00      -0.58    2.13   -2.32
#  17   -1.94   -2.84    0.70   -3.83    0.56    0.00    0.00      -7.34   -5.92    0.86
#  18   -1.62   -4.70    3.28   -1.44    0.76    0.00    0.00      -3.72   -2.35    1.24
#  19    0.75   -3.23    1.84   -2.78    0.38    0.00    0.00      -3.05   -5.32    0.73
#  20    0.04   -1.85    0.48    0.83   -0.38    0.00    0.00      -0.88    1.75   -0.80
#  21    0.16   -1.70    0.43   -0.96   -0.18    0.00    0.00      -2.27   -2.35   -0.45
#  22    0.13   -1.71    0.32   -0.49   -0.14    0.00    0.00      -1.90   -1.15   -0.33
#  23   -0.24   -1.56    0.52    0.84   -0.15    0.00    0.00      -0.59    2.02   -0.36
#  24    3.84   -0.80    0.06   -4.14    0.10    0.00    0.00      -0.95  -11.98    0.28
#  25   -4.16   -0.01    0.00    1.86    0.06    0.00    0.00      -2.25   15.24    0.53
#  26    0.13   -0.70    0.04    0.01   -0.15    0.00    0.00      -0.67    0.02   -0.36
#  27   -0.71   -1.10    0.22    0.28   -0.22    0.00    0.00      -1.53    0.65   -0.51
#  28   17.81   -2.16    1.22   -6.33    1.07    0.00    0.00      11.60  -17.00    2.86
#  29   -0.47   -0.65    0.12    0.12   -0.14    0.00    0.00      -1.03    0.42   -0.51
#  30    0.04   -0.74    0.09    0.16   -0.11    0.00    0.00      -0.56    0.54   -0.39
#  31   -0.48   -2.21    0.97   -1.21   -0.16    0.00    0.00      -3.08   -2.64   -0.34
#  32    0.34   -0.44    0.08    0.47   -0.13    0.00    0.00       0.32    0.98   -0.28
#  33    0.47   -0.39    0.08    0.10   -0.13    0.00    0.00       0.12    0.21   -0.28
#  34    0.43   -0.46    0.15    0.13   -0.15    0.00    0.00       0.10    0.25   -0.28
#  35    0.73   -0.71    0.69    0.32   -0.12    0.00    0.00       0.90    0.67   -0.26
#  36    0.51   -0.88    0.90    0.39   -0.14    0.00    0.00       0.78    0.75   -0.27
#  37    0.34   -0.77    0.26    0.95   -0.13    0.00    0.00       0.65    1.63   -0.22
#  38    0.12   -0.72    0.19    2.06   -0.17    0.00    0.00       1.47    3.33   -0.28
#  39    1.00   -0.66    0.51    1.90   -0.13    0.00    0.00       2.62    4.14   -0.28
#  40    1.16   -0.68    0.69    0.41   -0.12    0.00    0.00       1.45    0.95   -0.28
#  41    1.25   -1.28    1.28    0.47   -0.18    0.00    0.00       1.54    0.75   -0.28
#  42    0.95   -1.09    1.74    0.08   -0.16    0.00    0.00       1.52    0.14   -0.28
#  43    1.77   -0.04    0.00    1.58    0.17    0.00    0.00       3.49    3.29    0.36
#  44   -0.94   -0.08    0.01    1.74    0.38    0.00    0.00       1.10    2.71    0.59
#  45   -2.84   -0.07    0.01    2.51    0.17    0.00    0.00      -0.22    5.77    0.40
#  46   -0.38   -0.30    0.06    1.35   -0.07    0.00    0.00       0.66    5.51   -0.28
#  47   -0.54   -0.72    0.25    2.86   -0.13    0.00    0.00       1.72    6.17   -0.28
#  48   -1.12   -1.52    4.85    2.61   -0.10    0.00    0.00       4.72    7.09   -0.28
#  49   -1.24   -0.20    0.01    0.95   -0.04    0.00    0.00      -0.52    4.27   -0.20
#  50   -1.88   -0.35    0.07    1.52   -0.09    0.00    0.00      -0.73    4.81   -0.28
#  51   -1.39   -0.43    0.13    0.51   -0.10    0.00    0.00      -1.29    1.41   -0.28
#  52   -3.23   -0.47    0.16    0.84   -0.11    0.00    0.00      -2.81    2.14   -0.28
#  53  -12.87   -0.10    0.02    2.74    0.22    0.00    0.00     -10.00    7.26    0.58
#  54   -0.98   -0.23    0.07    0.26   -0.04    0.00    0.00      -0.92    1.64   -0.28
#  55   -1.46   -0.13    0.01    0.26   -0.03    0.00    0.00      -1.35    2.18   -0.28
#  56   -1.43   -0.48    0.19    1.28   -0.08    0.00    0.00      -0.51    4.62   -0.28
#  57   -0.89   -0.25    0.06    1.24   -0.05    0.00    0.00       0.11    6.43   -0.28
#  58    0.60   -0.70    0.66    2.04   -0.11    0.00    0.00       2.49    5.07   -0.27

@<TRIPOS>MOLECULE
             1521        14
   58    62     0     0     0



@<TRIPOS>ATOM
      1 C1         11.2234    14.7718    64.5596 C.3        1          -0.1553
      2 C2         12.5732    15.4495    64.3155 C.3        1           0.0527
      3 O1         13.3420    15.4273    65.5198 O.3        1          -0.3123
      4 C3         14.6938    15.3835    65.3881 C.ar       1           0.1463
      5 C4         15.4621    14.7474    66.3682 C.ar       1          -0.1832
      6 C5         16.8166    14.6878    66.2641 C.ar       1          -0.0650
      7 C6         17.4578    15.2724    65.1566 C.ar       1          -0.0849
      8 C7         18.8535    15.2270    65.0209 C.ar       1          -0.0645
      9 C8         19.4497    15.8124    63.9183 C.ar       1          -0.0862
     10 C9         18.6692    16.4491    62.9383 C.ar       1          -0.1012
     11 C10        17.3175    16.5040    63.0521 C.ar       1          -0.1021
     12 C11        16.6805    15.9177    64.1614 C.ar       1          -0.0028
     13 C12        15.2835    15.9566    64.2973 C.ar       1          -0.1587
     14 C13        20.9228    15.7680    63.7696 C.ar       1           0.0667
     15 C14        21.5916    14.5312    63.6897 C.ar       1          -0.1638
     16 C15        21.1527    13.1375    63.7204 C.2        1           0.3690
     17 N1         19.8343    12.6905    63.8484 N.pl3      1          -0.8299
     18 N2         22.2150    12.3844    63.6063 N.2        1          -0.3038
     19 N3         23.3579    13.1832    63.4991 N.pl3      1          -0.4953
     20 C16        22.9906    14.5033    63.5487 C.ar       1           0.1546
     21 C17        23.7004    15.7012    63.4888 C.ar       1          -0.1233
     22 C18        23.0347    16.9039    63.5678 C.ar       1          -0.0980
     23 C19        23.8144    18.1918    63.5022 C.3        1           0.0450
     24 N4         23.9291    18.6240    62.1030 N.4        1          -0.3842
     25 H1         24.4076    17.9134    61.5698 H          1           0.4198
     26 C20        22.5871    18.8344    61.5441 C.3        1          -0.0101
     27 C21        22.7056    19.2665    60.0809 C.3        1           0.0302
     28 N5         23.4883    20.5080    60.0016 N.3        1          -0.6896
     29 C22        24.8262    20.3195    60.5801 C.3        1           0.0291
     30 C23        24.6899    19.8789    62.0393 C.3        1          -0.0044
     31 C24        21.6550    16.9446    63.7021 C.ar       1          -0.1553
     32 H2         10.6370    14.7888    63.6409 H          1           0.0821
     33 H3         11.3859    13.7390    64.8678 H          1           0.0687
     34 H4         10.6858    15.3048    65.3438 H          1           0.0686
     35 H5         13.1108    14.9164    63.5313 H          1           0.0644
     36 H6         12.4108    16.4823    64.0071 H          1           0.0642
     37 H7         14.9731    14.2974    67.2197 H          1           0.1348
     38 H8         17.3979    14.1939    67.0287 H          1           0.1332
     39 H9         19.4578    14.7390    65.7714 H          1           0.1275
     40 H10        19.1510    16.9011    62.0839 H          1           0.1285
     41 H11        16.7311    16.9972    62.2910 H          1           0.1367
     42 H12        14.6784    16.4408    63.5450 H          1           0.1397
     43 H13        19.1104    13.3313    63.9269 H          1           0.4150
     44 H14        19.6435    11.7395    63.8584 H          1           0.4121
     45 H15        24.2659    12.8557    63.4046 H          1           0.4469
     46 H16        24.7748    15.6860    63.3805 H          1           0.1359
     47 H17        23.2974    18.9593    64.0784 H          1           0.1408
     48 H18        24.8102    18.0351    63.9169 H          1           0.1398
     49 H19        22.0190    17.9060    61.6040 H          1           0.1370
     50 H20        22.0747    19.6111    62.1120 H          1           0.1377
     51 H21        23.2057    18.4841    59.5100 H          1           0.0572
     52 H22        21.7104    19.4372    59.6704 H          1           0.1228
     53 H23        23.5490    20.8370    59.0497 H          1           0.3745
     54 H24        25.3612    19.5545    60.0174 H          1           0.0578
     55 H25        25.3781    21.2582    60.5337 H          1           0.1241
     56 H26        24.1666    20.6500    62.6044 H          1           0.1384
     57 H27        25.6809    19.7250    62.4661 H          1           0.1357
     58 H28        21.1485    17.8968    63.7581 H          1           0.1367
@<TRIPOS>BOND
     1    1    2 1
     2    1   32 1
     3    1   33 1
     4    1   34 1
     5    2    3 1
     6    2   35 1
     7    2   36 1
     8    3    4 1
     9    4   13 ar
    10    4    5 ar
    11    5    6 ar
    12    5   37 1
    13    6    7 ar
    14    6   38 1
    15    7   12 ar
    16    7    8 ar
    17    8    9 ar
    18    8   39 1
    19    9   10 ar
    20    9   14 1
    21   10   11 ar
    22   10   40 1
    23   11   12 ar
    24   11   41 1
    25   12   13 ar
    26   13   42 1
    27   14   31 ar
    28   14   15 ar
    29   15   20 ar
    30   15   16 1
    31   16   17 1
    32   16   18 2
    33   17   43 1
    34   17   44 1
    35   18   19 1
    36   19   20 1
    37   19   45 1
    38   20   21 ar
    39   21   22 ar
    40   21   46 1
    41   22   23 1
    42   22   31 ar
    43   23   24 1
    44   23   47 1
    45   23   48 1
    46   24   25 1
    47   24   30 1
    48   24   26 1
    49   26   27 1
    50   26   49 1
    51   26   50 1
    52   27   28 1
    53   27   51 1
    54   27   52 1
    55   28   29 1
    56   28   53 1
    57   29   30 1
    58   29   54 1
    59   29   55 1
    60   30   56 1
    61   30   57 1
    62   31   58 1
##########                 Name:                 1521
##########          Protonation:                   14
##########               SMILES:   CCOc1ccc2cc(ccc2c1)c3cc(cc4c3c(n[nH]4)N)C[NH+]5CCNCC5
##########            Long Name:   4-(6-ethoxy-2-naphthyl)-6-(piperazin-1-ium-1-ylmethyl)-1H-indazol-3-amine
##########          FlexRecCode: 1
##########               Number:                  248
##########   Ligand Source File: /raid1/people/rgc/Examples/tdt/part3/ligand22set/build/ligand22set-0000001.db2.g
##########           GlobalRank: 3
##########                 Rank:                    2
##########               Setnum:                  154
##########             Matchnum:                 9373
##########                Cloud:                    1
##########        Electrostatic:           -22.460594
##########        Van der Waals:           -34.326553
##########  Ligand Polar Desolv:             7.983354
########## Ligand Apolar Desolv:            -4.079613
##########      Internal Energy:             0.000000
##########      Receptor Energy: 0.0
########## Receptor Desolvation:             0.000000
########## Receptor Hydrophobic:             0.000000
##########         Total Energy: -52.88
##########        Ligand Charge:             1.000000
##########            Arbitrary:    +999.9990
##########     heavy atom count:   30
##########           pose count:   10
##########        Ligand Energy:             0.000000
# num electro vdwattr vdwrepu polsolv apolsol rdesolv rhydroe totalscore fullpol fullapo
#   1   -1.03   -1.28    0.18   -0.64   -0.14    0.00    0.00      -2.90   -0.98   -0.21
#   2    0.48   -1.63    0.50    0.17   -0.07    0.00    0.00      -0.55    0.28   -0.11
#   3   -3.15   -1.77    0.39   -0.69    0.57    0.00    0.00      -4.64   -1.05    0.88
#   4    1.69   -2.77    1.96    0.19   -0.19    0.00    0.00       0.89    0.31   -0.31
#   5   -1.33   -3.13    1.32   -1.15   -0.27    0.00    0.00      -4.57   -1.81   -0.43
#   6   -0.43   -2.86    0.83   -0.30   -0.30    0.00    0.00      -3.06   -0.46   -0.46
#   7   -1.03   -2.14    0.45   -0.69   -0.25    0.00    0.00      -3.66   -1.09   -0.40
#   8   -0.67   -2.01    0.45   -0.38   -0.25    0.00    0.00      -2.86   -0.66   -0.43
#   9   -0.96   -1.78    0.33   -0.48   -0.18    0.00    0.00      -3.07   -0.91   -0.34
#  10   -1.37   -3.09    2.27   -0.45   -0.17    0.00    0.00      -2.81   -0.84   -0.31
#  11   -1.51   -4.07    3.03   -0.64   -0.26    0.00    0.00      -3.46   -1.09   -0.45
#  12   -0.04   -2.63    0.70   -0.16   -0.24    0.00    0.00      -2.37   -0.27   -0.40
#  13   -2.10   -3.08    1.29   -0.51   -0.27    0.00    0.00      -4.67   -0.85   -0.45
#  14    0.34   -1.63    0.36    0.07   -0.17    0.00    0.00      -1.04    0.15   -0.37
#  15   -0.45   -1.79    0.57   -1.42   -0.23    0.00    0.00      -3.33   -2.60   -0.43
#  16    1.39   -2.44    0.51    1.33   -1.45    0.00    0.00      -0.66    2.13   -2.32
#  17   -1.58   -3.06    0.85   -3.86    0.56    0.00    0.00      -7.09   -5.92    0.86
#  18   -1.96   -5.86    6.41   -1.46    0.77    0.00    0.00      -2.09   -2.35    1.24
#  19    1.16   -4.06    4.19   -2.82    0.39    0.00    0.00      -1.15   -5.32    0.73
#  20   -0.06   -1.86    0.50    0.84   -0.38    0.00    0.00      -0.97    1.75   -0.80
#  21    0.23   -1.45    0.25   -0.95   -0.18    0.00    0.00      -2.09   -2.35   -0.45
#  22    0.21   -1.38    0.17   -0.47   -0.13    0.00    0.00      -1.60   -1.15   -0.33
#  23   -0.27   -1.05    0.20    0.78   -0.14    0.00    0.00      -0.49    2.02   -0.36
#  24    4.22   -0.68    0.03   -4.02    0.09    0.00    0.00      -0.36  -11.98    0.28
#  25   -5.62   -0.01    0.00    2.57    0.09    0.00    0.00      -2.97   15.24    0.53
#  26    0.12   -0.54    0.03    0.01   -0.10    0.00    0.00      -0.48    0.02   -0.36
#  27   -0.62   -1.13    0.85    0.19   -0.15    0.00    0.00      -0.86    0.65   -0.51
#  28   13.71   -3.00    4.20   -5.49    0.92    0.00    0.00      10.35  -17.00    2.86
#  29   -0.48   -1.62    0.91    0.16   -0.20    0.00    0.00      -1.22    0.42   -0.51
#  30    0.04   -0.61    0.06    0.17   -0.12    0.00    0.00      -0.46    0.54   -0.39
#  31   -0.32   -1.70    0.40   -1.17   -0.15    0.00    0.00      -2.95   -2.64   -0.34
#  32    0.35   -0.43    0.08    0.47   -0.13    0.00    0.00       0.33    0.98   -0.28
#  33    0.47   -0.40    0.08    0.10   -0.13    0.00    0.00       0.12    0.21   -0.28
#  34    0.43   -0.46    0.15    0.13   -0.15    0.00    0.00       0.11    0.25   -0.28
#  35    0.74   -0.75    0.84    0.32   -0.12    0.00    0.00       1.03    0.67   -0.26
#  36    0.50   -0.84    0.66    0.40   -0.14    0.00    0.00       0.58    0.75   -0.27
#  37    0.40   -0.72    0.21    0.94   -0.13    0.00    0.00       0.70    1.63   -0.22
#  38    0.21   -0.68    0.16    2.03   -0.17    0.00    0.00       1.56    3.33   -0.28
#  39    0.98   -0.59    0.37    1.81   -0.12    0.00    0.00       2.45    4.14   -0.28
#  40    0.76   -0.63    0.36    0.43   -0.13    0.00    0.00       0.81    0.95   -0.28
#  41    0.98   -1.54    2.89    0.48   -0.18    0.00    0.00       2.63    0.75   -0.28
#  42    0.85   -1.14    1.93    0.08   -0.16    0.00    0.00       1.56    0.14   -0.28
#  43    1.64   -0.04    0.00    1.65    0.18    0.00    0.00       3.43    3.29    0.36
#  44   -1.42   -0.10    0.01    1.78    0.39    0.00    0.00       0.66    2.71    0.59
#  45   -4.04   -0.13    0.04    2.59    0.18    0.00    0.00      -1.36    5.77    0.40
#  46   -0.44   -0.23    0.02    1.27   -0.06    0.00    0.00       0.56    5.51   -0.28
#  47   -0.73   -0.45    0.08    2.45   -0.11    0.00    0.00       1.23    6.17   -0.28
#  48   -1.09   -0.75    1.04    2.06   -0.08    0.00    0.00       1.18    7.09   -0.28
#  49   -1.64   -0.26    0.04    0.94   -0.04    0.00    0.00      -0.97    4.27   -0.20
#  50   -1.10   -0.15    0.01    0.64   -0.04    0.00    0.00      -0.62    4.81   -0.28
#  51   -1.65   -0.57    0.65    0.41   -0.08    0.00    0.00      -1.24    1.41   -0.28
#  52   -1.94   -0.23    0.08    0.34   -0.04    0.00    0.00      -1.79    2.14   -0.28
#  53  -11.00   -0.20    0.09    2.61    0.21    0.00    0.00      -8.29    7.26    0.58
#  54   -1.32   -0.79    0.73    0.69   -0.12    0.00    0.00      -0.81    1.64   -0.28
#  55   -1.44   -0.65    0.36    0.86   -0.11    0.00    0.00      -0.98    2.18   -0.28
#  56   -0.99   -0.12    0.00    0.51   -0.03    0.00    0.00      -0.62    4.62   -0.28
#  57   -1.05   -0.27    0.08    1.48   -0.06    0.00    0.00       0.17    6.43   -0.28
#  58    0.45   -0.48    0.22    1.77   -0.09    0.00    0.00       1.88    5.07   -0.27

@<TRIPOS>MOLECULE
             1521        14
   58    62     0     0     0



@<TRIPOS>ATOM
      1 C1         11.2497    14.7649    64.5596 C.3        1          -0.1553
      2 C2         12.6012    15.4134    64.2536 C.3        1           0.0527
      3 O1         13.3959    15.4411    65.4409 O.3        1          -0.3123
      4 C3         14.7439    15.3745    65.2827 C.ar       1           0.1463
      5 C4         15.5264    14.7782    66.2764 C.ar       1          -0.1832
      6 C5         16.8776    14.6972    66.1465 C.ar       1          -0.0650
      7 C6         17.5008    15.2189    64.9981 C.ar       1          -0.0849
      8 C7         18.8926    15.1500    64.8350 C.ar       1          -0.0645
      9 C8         19.4709    15.6732    63.6923 C.ar       1          -0.0862
     10 C9         18.6762    16.2704    62.6990 C.ar       1          -0.1012
     11 C10        17.3281    16.3471    62.8387 C.ar       1          -0.1021
     12 C11        16.7090    15.8238    63.9889 C.ar       1          -0.0028
     13 C12        15.3158    15.8862    64.1526 C.ar       1          -0.1587
     14 C13        20.9398    15.6038    63.5147 C.ar       1           0.0667
     15 C14        21.5931    14.3565    63.4817 C.ar       1          -0.1638
     16 C15        21.1396    12.9714    63.5906 C.2        1           0.3690
     17 N1         19.8195    12.5472    63.7686 N.pl3      1          -0.8299
     18 N2         22.1908    12.2008    63.4912 N.2        1          -0.3038
     19 N3         23.3398    12.9796    63.3204 N.pl3      1          -0.4953
     20 C16        22.9882    14.3048    63.3125 C.ar       1           0.1546
     21 C17        23.7097    15.4897    63.1783 C.ar       1          -0.1233
     22 C18        23.0592    16.7028    63.2120 C.ar       1          -0.0980
     23 C19        23.8514    17.9764    63.0663 C.3        1           0.0450
     24 N4         23.9402    18.3379    61.6453 N.4        1          -0.3842
     25 H1         23.0118    18.4749    61.2746 H          1           0.4198
     26 C20        24.7119    19.5796    61.5035 C.3        1          -0.0101
     27 C21        24.7886    19.9666    60.0249 C.3        1           0.0302
     28 N5         25.4311    18.8815    59.2701 N.3        1          -0.6896
     29 C22        24.6831    17.6256    59.4228 C.3        1           0.0291
     30 C23        24.6075    17.2579    60.9063 C.3        1          -0.0044
     31 C24        21.6833    16.7667    63.3735 C.ar       1          -0.1553
     32 H2         10.6435    14.7437    63.6539 H          1           0.0821
     33 H3         11.4074    13.7465    64.9149 H          1           0.0687
     34 H4         10.7353    15.3422    65.3278 H          1           0.0686
     35 H5         13.1156    14.8359    63.4854 H          1           0.0644
     36 H6         12.4434    16.4316    63.8981 H          1           0.0642
     37 H7         15.0513    14.3766    67.1593 H          1           0.1348
     38 H8         17.4700    14.2345    66.9220 H          1           0.1332
     39 H9         19.5077    14.6922    65.5957 H          1           0.1275
     40 H10        19.1441    16.6740    61.8132 H          1           0.1285
     41 H11        16.7306    16.8093    62.0668 H          1           0.1367
     42 H12        14.6998    16.3400    63.3903 H          1           0.1397
     43 H13        19.1046    13.1998    63.8308 H          1           0.4150
     44 H14        19.6185    11.6003    63.8297 H          1           0.4121
     45 H15        24.2419    12.6369    63.2228 H          1           0.4469
     46 H16        24.7812    15.4563    63.0481 H          1           0.1359
     47 H17        23.3557    18.7775    63.6147 H          1           0.1408
     48 H18        24.8543    17.8283    63.4669 H          1           0.1398
     49 H19        24.2229    20.3771    62.0629 H          1           0.1370
     50 H20        25.7189    19.4279    61.8921 H          1           0.1377
     51 H21        23.7825    20.1318    59.6395 H          1           0.0572
     52 H22        25.3740    20.8800    59.9180 H          1           0.1228
     53 H23        25.5299    19.1274    58.2965 H          1           0.3745
     54 H24        23.6752    17.7521    59.0274 H          1           0.0578
     55 H25        25.1913    16.8309    58.8766 H          1           0.1241
     56 H26        25.6150    17.1184    61.2980 H          1           0.1384
     57 H27        24.0410    16.3340    61.0230 H          1           0.1357
     58 H28        21.1887    17.7265    63.3932 H          1           0.1367
@<TRIPOS>BOND
     1    1    2 1
     2    1   32 1
     3    1   33 1
     4    1   34 1
     5    2    3 1
     6    2   35 1
     7    2   36 1
     8    3    4 1
     9    4   13 ar
    10    4    5 ar
    11    5    6 ar
    12    5   37 1
    13    6    7 ar
    14    6   38 1
    15    7   12 ar
    16    7    8 ar
    17    8    9 ar
    18    8   39 1
    19    9   10 ar
    20    9   14 1
    21   10   11 ar
    22   10   40 1
    23   11   12 ar
    24   11   41 1
    25   12   13 ar
    26   13   42 1
    27   14   31 ar
    28   14   15 ar
    29   15   20 ar
    30   15   16 1
    31   16   17 1
    32   16   18 2
    33   17   43 1
    34   17   44 1
    35   18   19 1
    36   19   20 1
    37   19   45 1
    38   20   21 ar
    39   21   22 ar
    40   21   46 1
    41   22   23 1
    42   22   31 ar
    43   23   24 1
    44   23   47 1
    45   23   48 1
    46   24   25 1
    47   24   30 1
    48   24   26 1
    49   26   27 1
    50   26   49 1
    51   26   50 1
    52   27   28 1
    53   27   51 1
    54   27   52 1
    55   28   29 1
    56   28   53 1
    57   29   30 1
    58   29   54 1
    59   29   55 1
    60   30   56 1
    61   30   57 1
    62   31   58 1
##########                 Name:                 1521
##########          Protonation:                   14
##########               SMILES:   CCOc1ccc2cc(ccc2c1)c3cc(cc4c3c(n[nH]4)N)C[NH+]5CCNCC5
##########            Long Name:   4-(6-ethoxy-2-naphthyl)-6-(piperazin-1-ium-1-ylmethyl)-1H-indazol-3-amine
##########          FlexRecCode: 1
##########               Number:                  248
##########   Ligand Source File: /raid1/people/rgc/Examples/tdt/part3/ligand22set/build/ligand22set-0000001.db2.g
##########           GlobalRank: 3
##########                 Rank:                    3
##########               Setnum:                  154
##########             Matchnum:                22480
##########                Cloud:                    1
##########        Electrostatic:           -20.033308
##########        Van der Waals:           -37.560631
##########  Ligand Polar Desolv:             9.394480
########## Ligand Apolar Desolv:            -4.281610
##########      Internal Energy:             0.000000
##########      Receptor Energy: 0.0
########## Receptor Desolvation:             0.000000
########## Receptor Hydrophobic:             0.000000
##########         Total Energy: -52.48
##########        Ligand Charge:             1.000000
##########            Arbitrary:    +999.9990
##########     heavy atom count:   30
##########           pose count:   10
##########        Ligand Energy:             0.000000
# num electro vdwattr vdwrepu polsolv apolsol rdesolv rhydroe totalscore fullpol fullapo
#   1   -1.02   -1.28    0.18   -0.64   -0.14    0.00    0.00      -2.89   -0.98   -0.21
#   2    0.48   -1.60    0.46    0.17   -0.07    0.00    0.00      -0.57    0.28   -0.11
#   3   -3.12   -1.75    0.35   -0.69    0.57    0.00    0.00      -4.63   -1.05    0.88
#   4    1.68   -2.67    1.64    0.20   -0.20    0.00    0.00       0.65    0.31   -0.31
#   5   -1.26   -3.18    1.30   -1.15   -0.27    0.00    0.00      -4.56   -1.81   -0.43
#   6   -0.41   -2.93    0.85   -0.30   -0.30    0.00    0.00      -3.08   -0.46   -0.46
#   7   -1.04   -2.14    0.40   -0.69   -0.25    0.00    0.00      -3.73   -1.09   -0.40
#   8   -0.69   -2.16    0.60   -0.38   -0.25    0.00    0.00      -2.88   -0.66   -0.43
#   9   -1.06   -1.95    0.49   -0.48   -0.18    0.00    0.00      -3.18   -0.91   -0.34
#  10   -1.70   -3.48    4.42   -0.45   -0.17    0.00    0.00      -1.37   -0.84   -0.31
#  11   -1.75   -3.95    2.88   -0.64   -0.26    0.00    0.00      -3.72   -1.09   -0.45
#  12   -0.05   -2.59    0.69   -0.16   -0.24    0.00    0.00      -2.34   -0.27   -0.40
#  13   -2.18   -2.97    1.14   -0.51   -0.27    0.00    0.00      -4.79   -0.85   -0.45
#  14    0.40   -1.83    0.55    0.07   -0.17    0.00    0.00      -0.99    0.15   -0.37
#  15   -0.52   -1.73    0.39   -1.39   -0.23    0.00    0.00      -3.47   -2.60   -0.43
#  16    1.38   -2.26    0.42    1.32   -1.44    0.00    0.00      -0.58    2.13   -2.32
#  17   -1.94   -2.84    0.70   -3.83    0.56    0.00    0.00      -7.34   -5.92    0.86
#  18   -1.62   -4.70    3.28   -1.44    0.76    0.00    0.00      -3.72   -2.35    1.24
#  19    0.75   -3.23    1.84   -2.78    0.38    0.00    0.00      -3.05   -5.32    0.73
#  20    0.04   -1.85    0.48    0.83   -0.38    0.00    0.00      -0.88    1.75   -0.80
#  21    0.16   -1.70    0.43   -0.96   -0.18    0.00    0.00      -2.27   -2.35   -0.45
#  22    0.13   -1.71    0.32   -0.49   -0.14    0.00    0.00      -1.90   -1.15   -0.33
#  23   -0.24   -1.56    0.52    0.84   -0.15    0.00    0.00      -0.59    2.02   -0.36
#  24    3.84   -0.80    0.06   -4.14    0.10    0.00    0.00      -0.95  -11.98    0.28
#  25   -5.15   -0.01    0.00    2.75    0.10    0.00    0.00      -2.31   15.24    0.53
#  26    0.10   -0.74    0.09    0.01   -0.11    0.00    0.00      -0.64    0.02   -0.36
#  27   -0.49   -0.65    0.12    0.19   -0.15    0.00    0.00      -0.99    0.65   -0.51
#  28   12.01   -1.64    1.12   -4.67    0.79    0.00    0.00       7.60  -17.00    2.86
#  29   -0.47   -1.03    0.28    0.14   -0.17    0.00    0.00      -1.24    0.42   -0.51
#  30    0.04   -0.52    0.03    0.16   -0.11    0.00    0.00      -0.40    0.54   -0.39
#  31   -0.48   -2.21    0.97   -1.21   -0.16    0.00    0.00      -3.08   -2.64   -0.34
#  32    0.34   -0.44    0.08    0.47   -0.13    0.00    0.00       0.32    0.98   -0.28
#  33    0.47   -0.39    0.08    0.10   -0.13    0.00    0.00       0.12    0.21   -0.28
#  34    0.43   -0.46    0.15    0.13   -0.15    0.00    0.00       0.10    0.25   -0.28
#  35    0.73   -0.71    0.69    0.32   -0.12    0.00    0.00       0.90    0.67   -0.26
#  36    0.51   -0.88    0.90    0.39   -0.14    0.00    0.00       0.78    0.75   -0.27
#  37    0.34   -0.77    0.26    0.95   -0.13    0.00    0.00       0.65    1.63   -0.22
#  38    0.12   -0.72    0.19    2.06   -0.17    0.00    0.00       1.47    3.33   -0.28
#  39    1.00   -0.66    0.51    1.90   -0.13    0.00    0.00       2.62    4.14   -0.28
#  40    1.16   -0.68    0.69    0.41   -0.12    0.00    0.00       1.45    0.95   -0.28
#  41    1.25   -1.28    1.28    0.47   -0.18    0.00    0.00       1.54    0.75   -0.28
#  42    0.95   -1.09    1.74    0.08   -0.16    0.00    0.00       1.52    0.14   -0.28
#  43    1.77   -0.04    0.00    1.58    0.17    0.00    0.00       3.49    3.29    0.36
#  44   -0.94   -0.08    0.01    1.74    0.38    0.00    0.00       1.10    2.71    0.59
#  45   -2.84   -0.07    0.01    2.51    0.17    0.00    0.00      -0.22    5.77    0.40
#  46   -0.38   -0.30    0.06    1.35   -0.07    0.00    0.00       0.66    5.51   -0.28
#  47   -0.54   -0.72    0.25    2.86   -0.13    0.00    0.00       1.72    6.17   -0.28
#  48   -1.12   -1.52    4.85    2.61   -0.10    0.00    0.00       4.72    7.09   -0.28
#  49   -1.39   -0.48    0.19    1.19   -0.06    0.00    0.00      -0.54    4.27   -0.20
#  50   -0.90   -0.24    0.05    0.91   -0.05    0.00    0.00      -0.24    4.81   -0.28
#  51   -1.34   -0.29    0.07    0.36   -0.07    0.00    0.00      -1.27    1.41   -0.28
#  52   -1.45   -0.13    0.01    0.26   -0.03    0.00    0.00      -1.35    2.14   -0.28
#  53   -9.69   -0.10    0.02    2.07    0.17    0.00    0.00      -7.53    7.26    0.58
#  54   -1.29   -0.47    0.18    0.56   -0.10    0.00    0.00      -1.12    1.64   -0.28
#  55   -1.55   -0.39    0.11    0.69   -0.09    0.00    0.00      -1.22    2.18   -0.28
#  56   -1.02   -0.13    0.01    0.53   -0.03    0.00    0.00      -0.65    4.62   -0.28
#  57   -1.05   -0.19    0.02    1.18   -0.05    0.00    0.00      -0.08    6.43   -0.28
#  58    0.60   -0.70    0.66    2.04   -0.11    0.00    0.00       2.49    5.07   -0.27

@<TRIPOS>MOLECULE
             1521        14
   58    62     0     0     0



@<TRIPOS>ATOM
      1 C1         11.2234    14.7718    64.5596 C.3        1          -0.1553
      2 C2         12.5732    15.4495    64.3155 C.3        1           0.0527
      3 O1         13.3420    15.4273    65.5198 O.3        1          -0.3123
      4 C3         14.6938    15.3835    65.3881 C.ar       1           0.1463
      5 C4         15.4621    14.7474    66.3682 C.ar       1          -0.1832
      6 C5         16.8166    14.6878    66.2641 C.ar       1          -0.0650
      7 C6         17.4578    15.2724    65.1566 C.ar       1          -0.0849
      8 C7         18.8535    15.2270    65.0209 C.ar       1          -0.0645
      9 C8         19.4497    15.8124    63.9183 C.ar       1          -0.0862
     10 C9         18.6692    16.4491    62.9383 C.ar       1          -0.1012
     11 C10        17.3175    16.5040    63.0521 C.ar       1          -0.1021
     12 C11        16.6805    15.9177    64.1614 C.ar       1          -0.0028
     13 C12        15.2835    15.9566    64.2973 C.ar       1          -0.1587
     14 C13        20.9228    15.7680    63.7696 C.ar       1           0.0667
     15 C14        21.5916    14.5312    63.6897 C.ar       1          -0.1638
     16 C15        21.1527    13.1375    63.7204 C.2        1           0.3690
     17 N1         19.8343    12.6905    63.8484 N.pl3      1          -0.8299
     18 N2         22.2150    12.3844    63.6063 N.2        1          -0.3038
     19 N3         23.3579    13.1832    63.4991 N.pl3      1          -0.4953
     20 C16        22.9906    14.5033    63.5487 C.ar       1           0.1546
     21 C17        23.7004    15.7012    63.4888 C.ar       1          -0.1233
     22 C18        23.0347    16.9039    63.5678 C.ar       1          -0.0980
     23 C19        23.8144    18.1918    63.5022 C.3        1           0.0450
     24 N4         23.9291    18.6240    62.1030 N.4        1          -0.3842
     25 H1         23.0072    18.7689    61.7193 H          1           0.4198
     26 C20        24.6886    19.8796    62.0394 C.3        1          -0.0101
     27 C21        24.7922    20.3401    60.5837 C.3        1           0.0302
     28 N5         25.4636    19.3007    59.7906 N.3        1          -0.6896
     29 C22        24.7278    18.0306    59.8650 C.3        1           0.0291
     30 C23        24.6250    17.5893    61.3266 C.3        1          -0.0044
     31 C24        21.6550    16.9446    63.7021 C.ar       1          -0.1553
     32 H2         10.6370    14.7888    63.6409 H          1           0.0821
     33 H3         11.3859    13.7390    64.8678 H          1           0.0687
     34 H4         10.6858    15.3048    65.3438 H          1           0.0686
     35 H5         13.1108    14.9164    63.5313 H          1           0.0644
     36 H6         12.4108    16.4823    64.0071 H          1           0.0642
     37 H7         14.9731    14.2974    67.2197 H          1           0.1348
     38 H8         17.3979    14.1939    67.0287 H          1           0.1332
     39 H9         19.4578    14.7390    65.7714 H          1           0.1275
     40 H10        19.1510    16.9011    62.0839 H          1           0.1285
     41 H11        16.7311    16.9972    62.2910 H          1           0.1367
     42 H12        14.6784    16.4408    63.5450 H          1           0.1397
     43 H13        19.1104    13.3313    63.9269 H          1           0.4150
     44 H14        19.6435    11.7395    63.8584 H          1           0.4121
     45 H15        24.2659    12.8557    63.4046 H          1           0.4469
     46 H16        24.7748    15.6860    63.3805 H          1           0.1359
     47 H17        23.2974    18.9593    64.0784 H          1           0.1408
     48 H18        24.8102    18.0351    63.9169 H          1           0.1398
     49 H19        24.1782    20.6431    62.6264 H          1           0.1370
     50 H20        25.6889    19.7200    62.4420 H          1           0.1377
     51 H21        23.7926    20.5130    60.1849 H          1           0.0572
     52 H22        25.3686    21.2640    60.5346 H          1           0.1228
     53 H23        25.5802    19.5955    58.8327 H          1           0.3745
     54 H24        23.7271    18.1654    59.4544 H          1           0.0578
     55 H25        25.2570    17.2695    59.2917 H          1           0.1241
     56 H26        25.6255    17.4417    61.7330 H          1           0.1384
     57 H27        24.0674    16.6546    61.3854 H          1           0.1357
     58 H28        21.1485    17.8968    63.7581 H          1           0.1367
@<TRIPOS>BOND
     1    1    2 1
     2    1   32 1
     3    1   33 1
     4    1   34 1
     5    2    3 1
     6    2   35 1
     7    2   36 1
     8    3    4 1
     9    4   13 ar
    10    4    5 ar
    11    5    6 ar
    12    5   37 1
    13    6    7 ar
    14    6   38 1
    15    7   12 ar
    16    7    8 ar
    17    8    9 ar
    18    8   39 1
    19    9   10 ar
    20    9   14 1
    21   10   11 ar
    22   10   40 1
    23   11   12 ar
    24   11   41 1
    25   12   13 ar
    26   13   42 1
    27   14   31 ar
    28   14   15 ar
    29   15   20 ar
    30   15   16 1
    31   16   17 1
    32   16   18 2
    33   17   43 1
    34   17   44 1
    35   18   19 1
    36   19   20 1
    37   19   45 1
    38   20   21 ar
    39   21   22 ar
    40   21   46 1
    41   22   23 1
    42   22   31 ar
    43   23   24 1
    44   23   47 1
    45   23   48 1
    46   24   25 1
    47   24   30 1
    48   24   26 1
    49   26   27 1
    50   26   49 1
    51   26   50 1
    52   27   28 1
    53   27   51 1
    54   27   52 1
    55   28   29 1
    56   28   53 1
    57   29   30 1
    58   29   54 1
    59   29   55 1
    60   30   56 1
    61   30   57 1
    62   31   58 1
##########                 Name:                 1551
##########          Protonation:                   86
##########               SMILES:   c1cc(nc2c1cc(cc2)c3c4c(ncnc4n(n3)CC5CC[NH2+]CC5)N)OC6CC6
##########            Long Name:   )-6-quinolyl]-1-(piperidin-1-ium-4-ylmethyl)pyrazolo[3,4-d]pyrimidin-4-amine
##########          FlexRecCode: 1
##########               Number:                   19
##########   Ligand Source File: /raid1/people/rgc/Examples/tdt/part3/ligand22set/build/ligand22set-0000001.db2.g
##########           GlobalRank: 3
##########                 Rank:                    1
##########               Setnum:                   54
##########             Matchnum:                11273
##########                Cloud:                    1
##########        Electrostatic:           -37.063145
##########        Van der Waals:           -31.583065
##########  Ligand Polar Desolv:            15.061014
########## Ligand Apolar Desolv:            -3.952763
##########      Internal Energy:             0.000000
##########      Receptor Energy: 0.0
########## Receptor Desolvation:             0.000000
########## Receptor Hydrophobic:             0.000000
##########         Total Energy: -57.54
##########        Ligand Charge:             1.000000
##########            Arbitrary:    +999.9990
##########     heavy atom count:   31
##########           pose count:   10
##########        Ligand Energy:             0.000000
# num electro vdwattr vdwrepu polsolv apolsol rdesolv rhydroe totalscore fullpol fullapo
#   1   -2.50   -2.46    0.47   -5.03    0.52    0.00    0.00      -9.00   -7.90    0.81
#   2    1.86   -1.96    0.39    2.14   -1.30    0.00    0.00       1.13    3.55   -2.15
#   3   -1.27   -1.65    0.40   -1.36   -0.23    0.00    0.00      -4.11   -2.65   -0.44
#   4    1.74   -1.99    0.62    0.65   -0.36    0.00    0.00       0.67    1.36   -0.75
#   5   -1.63   -2.75    1.80   -1.04    0.51    0.00    0.00      -3.11   -2.23    1.09
#   6    0.04   -1.53    0.22   -1.71    0.43    0.00    0.00      -2.54   -3.90    0.98
#   7   -0.73   -1.02    0.13    0.71   -0.18    0.00    0.00      -1.08    1.73   -0.43
#   8    1.28   -0.57    0.03   -0.77   -0.06    0.00    0.00      -0.09   -2.08   -0.15
#   9    1.72   -0.53    0.03   -0.98   -0.06    0.00    0.00       0.17   -3.41   -0.22
#  10    0.12   -1.12    0.77    0.25   -0.14    0.00    0.00      -0.13    0.81   -0.47
#  11   15.21   -2.88    4.47   -6.47    0.35    0.00    0.00      10.69  -16.28    0.89
#  12  -11.08   -0.03    0.00    5.51    0.18    0.00    0.00      -5.41   16.82    0.56
#  13  -19.43   -0.31    0.30    7.85    0.25    0.00    0.00     -11.34   18.01    0.57
#  14    0.12   -1.50    0.47    0.29   -0.22    0.00    0.00      -0.84    0.63   -0.47
#  15    2.08   -0.75    0.05   -1.58   -0.10    0.00    0.00      -0.31   -3.57   -0.22
#  16    0.24   -1.55    0.33    1.15   -0.95    0.00    0.00      -0.79    2.66   -2.20
#  17    0.86   -1.61    0.29   -1.96    0.93    0.00    0.00      -1.49   -4.42    2.09
#  18   -0.88   -2.82    1.57    1.40   -1.60    0.00    0.00      -2.32    2.77   -3.16
#  19   -1.80   -3.14    1.03   -2.41    1.24    0.00    0.00      -5.08   -4.04    2.08
#  20   -0.68   -2.16    0.68   -0.19   -0.21    0.00    0.00      -2.56   -0.35   -0.38
#  21   -0.73   -2.07    0.38   -0.20   -0.19    0.00    0.00      -2.81   -0.33   -0.31
#  22   -1.63   -2.33    0.58   -0.75   -0.26    0.00    0.00      -4.40   -1.16   -0.40
#  23   -0.11   -3.26    1.21    0.06   -0.30    0.00    0.00      -2.39    0.10   -0.46
#  24   -0.91   -3.68    1.92   -0.88   -0.29    0.00    0.00      -3.84   -1.39   -0.46
#  25    3.67   -3.00    2.85    0.55   -0.42    0.00    0.00       3.64    0.86   -0.66
#  26   -2.39   -1.92    0.47   -0.35    0.56    0.00    0.00      -3.63   -0.55    0.88
#  27    0.05   -1.52    0.40   -0.05   -0.17    0.00    0.00      -1.30   -0.08   -0.27
#  28   -0.97   -1.49    0.36   -0.49   -0.28    0.00    0.00      -2.87   -0.77   -0.44
#  29   -1.39   -1.57    0.37   -0.47   -0.27    0.00    0.00      -3.33   -0.75   -0.44
#  30   -6.56   -2.88    1.52   -0.92    1.57    0.00    0.00      -7.27   -1.54    2.61
#  31    2.77   -2.73    0.93    0.37   -0.43    0.00    0.00       0.90    0.62   -0.73
#  32   -1.42   -4.03    2.16   -0.49   -0.28    0.00    0.00      -4.05   -0.81   -0.46
#  33   -1.11   -3.84    4.23   -0.22   -0.26    0.00    0.00      -1.20   -0.39   -0.45
#  34   -0.14   -0.06    0.00    2.93    0.37    0.00    0.00       3.10    4.68    0.59
#  35    1.93   -0.03    0.00    2.01    0.17    0.00    0.00       4.08    4.35    0.36
#  36   -0.50   -0.48    0.09    0.53   -0.12    0.00    0.00      -0.49    1.24   -0.28
#  37   -0.52   -0.49    0.21    0.65   -0.09    0.00    0.00      -0.22    2.12   -0.28
#  38   -0.97   -0.18    0.02    0.18   -0.05    0.00    0.00      -1.01    0.98   -0.28
#  39   -1.04   -0.23    0.02    0.56   -0.06    0.00    0.00      -0.75    2.67   -0.28
#  40   -0.97   -0.15    0.01    0.04   -0.03    0.00    0.00      -1.10    0.33   -0.24
#  41   -2.26   -0.25    0.11    0.79   -0.04    0.00    0.00      -1.65    4.93   -0.28
#  42   -2.77   -0.47    0.33    0.91   -0.07    0.00    0.00      -2.08    3.55   -0.28
#  43   -3.93   -0.76    0.68    2.62   -0.12    0.00    0.00      -1.51    6.01   -0.28
#  44   -3.44   -0.61    0.24    1.76   -0.13    0.00    0.00      -2.18    3.87   -0.28
#  45   -1.20   -0.24    0.02    0.57   -0.08    0.00    0.00      -0.93    1.94   -0.28
#  46   -1.44   -0.31    0.05    1.02   -0.09    0.00    0.00      -0.77    3.34   -0.28
#  47   -1.78   -1.33    4.81    1.18   -0.12    0.00    0.00       2.77    2.72   -0.28
#  48    1.18   -0.55    0.25    1.02   -0.11    0.00    0.00       1.79    2.18   -0.24
#  49   -0.04   -0.77    0.23    2.04   -0.17    0.00    0.00       1.29    3.27   -0.28
#  50    0.22   -1.01    0.60    0.94   -0.17    0.00    0.00       0.58    1.53   -0.28
#  51    1.23   -0.97    1.62    0.14   -0.12    0.00    0.00       1.90    0.28   -0.23
#  52    0.57   -0.39    0.07    0.23   -0.15    0.00    0.00       0.32    0.42   -0.28
#  53    0.39   -0.79    0.69    0.45   -0.16    0.00    0.00       0.58    0.81   -0.28
#  54    1.08   -0.87    0.46    0.41   -0.15    0.00    0.00       0.93    0.78   -0.28
#  55    0.91   -0.63    0.81    0.17   -0.12    0.00    0.00       1.14    0.40   -0.28
#  56    0.41   -1.92    5.33    0.56   -0.18    0.00    0.00       4.20    0.87   -0.28
#  57    1.50   -1.00    1.47    0.73   -0.14    0.00    0.00       2.58    1.47   -0.28

@<TRIPOS>MOLECULE
             1551        86
   57    62     0     0     0



@<TRIPOS>ATOM
      1 N1         19.9115    12.9423    63.8347 N.pl3      1          -0.8257
      2 C1         21.1282    13.5647    63.6327 C.ar       1           0.5218
      3 C2         21.2218    14.9656    63.5883 C.ar       1          -0.3266
      4 C3         20.2708    16.0702    63.7123 C.2        1           0.1875
      5 N2         20.9485    17.1866    63.5833 N.2        1          -0.2434
      6 N3         22.3024    16.8999    63.3793 N.pl3      1          -0.3870
      7 C4         23.3598    17.8969    63.1939 C.3        1           0.1486
      8 C5         23.5066    18.2134    61.7043 C.3        1          -0.1198
      9 C6         24.6049    19.2627    61.5094 C.3        1          -0.1427
     10 C7         24.6918    19.6330    60.0272 C.3        1          -0.0058
     11 N4         23.4054    20.1798    59.5794 N.4        1          -0.5054
     12 H1         23.1614    20.9742    60.1516 H          1           0.4284
     13 H2         23.4819    20.4712    58.6164 H          1           0.4324
     14 C8         22.3609    19.1552    59.6961 C.3        1          -0.0046
     15 C9         22.1842    18.7667    61.1656 C.3        1          -0.1407
     16 C10        22.4852    15.5491    63.3798 C.ar       1           0.3785
     17 N5         23.5418    14.7496    63.2331 N.ar       1          -0.5786
     18 C11        23.4063    13.4428    63.2825 C.ar       1           0.3938
     19 N6         22.2406    12.8529    63.4808 N.ar       1          -0.5987
     20 C12        18.8113    15.9506    63.9407 C.ar       1          -0.0446
     21 C13        18.3430    15.3231    65.0820 C.ar       1          -0.0625
     22 C14        16.9616    15.2141    65.2905 C.ar       1          -0.1368
     23 C15        16.4449    14.5824    66.4408 C.ar       1          -0.0223
     24 C16        15.0915    14.5095    66.5844 C.ar       1          -0.1713
     25 C17        14.2557    15.0548    65.6021 C.ar       1           0.3714
     26 O1         12.9114    14.9751    65.7590 O.3        1          -0.2711
     27 C18        12.1029    15.5467    64.7285 C.3        1           0.0055
     28 C19        10.6591    15.0549    64.6089 C.3        1          -0.1774
     29 C20        11.6974    14.6405    63.5643 C.3        1          -0.1725
     30 N7         14.7428    15.6430    64.5311 N.ar       1          -0.5413
     31 C21        16.0620    15.7459    64.3333 C.ar       1           0.1865
     32 C22        16.5706    16.3771    63.1842 C.ar       1          -0.0955
     33 C23        17.9126    16.4795    63.0009 C.ar       1          -0.0637
     34 H3         19.8617    11.9743    63.8692 H          1           0.4145
     35 H4         19.1076    13.4736    63.9461 H          1           0.4146
     36 H5         23.1001    18.8069    63.7348 H          1           0.1082
     37 H6         24.3015    17.5031    63.5762 H          1           0.1016
     38 H7         23.7691    17.3046    61.1627 H          1           0.0961
     39 H8         24.3663    20.1519    62.0933 H          1           0.0936
     40 H9         25.5603    18.8552    61.8396 H          1           0.1122
     41 H10        25.4729    20.3798    59.8850 H          1           0.1343
     42 H11        24.9306    18.7432    59.4444 H          1           0.1286
     43 H12        21.4211    19.5494    59.3094 H          1           0.1369
     44 H13        22.6494    18.2758    59.1203 H          1           0.1309
     45 H14        21.4094    18.0046    61.2499 H          1           0.1184
     46 H15        21.8954    19.6455    61.7422 H          1           0.0941
     47 H16        24.2845    12.8262    63.1595 H          1           0.2078
     48 H17        19.0364    14.9204    65.8056 H          1           0.1386
     49 H18        17.1045    14.1669    67.1884 H          1           0.1524
     50 H19        14.6646    14.0318    67.4538 H          1           0.1520
     51 H20        12.2979    16.5957    64.5057 H          1           0.1420
     52 H21        10.3258    14.2954    65.3161 H          1           0.1040
     53 H22         9.9037    15.7805    64.3073 H          1           0.1082
     54 H23        11.6252    15.0936    62.5756 H          1           0.1095
     55 H24        12.0472    13.6085    63.5843 H          1           0.1049
     56 H25        15.8930    16.7857    62.4490 H          1           0.1439
     57 H26        18.2936    16.9704    62.1173 H          1           0.1362
@<TRIPOS>BOND
     1    1    2 1
     2    1   34 1
     3    1   35 1
     4    2   19 ar
     5    2    3 ar
     6    3   16 ar
     7    3    4 1
     8    4    5 2
     9    4   20 1
    10    5    6 1
    11    6    7 1
    12    6   16 1
    13    7    8 1
    14    7   36 1
    15    7   37 1
    16    8   15 1
    17    8    9 1
    18    8   38 1
    19    9   10 1
    20    9   39 1
    21    9   40 1
    22   10   11 1
    23   10   41 1
    24   10   42 1
    25   11   12 1
    26   11   13 1
    27   11   14 1
    28   14   15 1
    29   14   43 1
    30   14   44 1
    31   15   45 1
    32   15   46 1
    33   16   17 ar
    34   17   18 ar
    35   18   19 ar
    36   18   47 1
    37   20   33 ar
    38   20   21 ar
    39   21   22 ar
    40   21   48 1
    41   22   31 ar
    42   22   23 ar
    43   23   24 ar
    44   23   49 1
    45   24   25 ar
    46   24   50 1
    47   25   26 1
    48   25   30 ar
    49   26   27 1
    50   27   29 1
    51   27   28 1
    52   27   51 1
    53   28   29 1
    54   28   52 1
    55   28   53 1
    56   29   54 1
    57   29   55 1
    58   30   31 ar
    59   31   32 ar
    60   32   33 ar
    61   32   56 1
    62   33   57 1
##########                 Name:                 1551
##########          Protonation:                   86
##########               SMILES:   c1cc(nc2c1cc(cc2)c3c4c(ncnc4n(n3)CC5CC[NH2+]CC5)N)OC6CC6
##########            Long Name:   )-6-quinolyl]-1-(piperidin-1-ium-4-ylmethyl)pyrazolo[3,4-d]pyrimidin-4-amine
##########          FlexRecCode: 1
##########               Number:                   21
##########   Ligand Source File: /raid1/people/rgc/Examples/tdt/part3/ligand22set/build/ligand22set-0000001.db2.g
##########           GlobalRank: 3
##########                 Rank:                    1
##########               Setnum:                  159
##########             Matchnum:                11273
##########                Cloud:                    1
##########        Electrostatic:           -36.346386
##########        Van der Waals:           -30.748003
##########  Ligand Polar Desolv:            15.540054
########## Ligand Apolar Desolv:            -3.950627
##########      Internal Energy:             0.000000
##########      Receptor Energy: 0.0
########## Receptor Desolvation:             0.000000
########## Receptor Hydrophobic:             0.000000
##########         Total Energy: -55.5
##########        Ligand Charge:             1.000000
##########            Arbitrary:    +999.9990
##########     heavy atom count:   31
##########           pose count:   10
##########        Ligand Energy:             0.000000
# num electro vdwattr vdwrepu polsolv apolsol rdesolv rhydroe totalscore fullpol fullapo
#   1   -2.50   -2.46    0.47   -5.03    0.52    0.00    0.00      -9.00   -7.90    0.81
#   2    1.86   -1.96    0.39    2.14   -1.30    0.00    0.00       1.13    3.55   -2.15
#   3   -1.27   -1.65    0.40   -1.36   -0.23    0.00    0.00      -4.11   -2.65   -0.44
#   4    1.74   -1.99    0.62    0.65   -0.36    0.00    0.00       0.67    1.36   -0.75
#   5   -1.63   -2.75    1.80   -1.04    0.51    0.00    0.00      -3.11   -2.23    1.09
#   6    0.04   -1.53    0.22   -1.71    0.43    0.00    0.00      -2.54   -3.90    0.98
#   7   -0.73   -1.02    0.13    0.71   -0.18    0.00    0.00      -1.08    1.73   -0.43
#   8    1.29   -0.82    0.07   -0.85   -0.06    0.00    0.00      -0.36   -2.08   -0.15
#   9    1.91   -0.78    0.07   -1.50   -0.10    0.00    0.00      -0.40   -3.41   -0.22
#  10    0.14   -1.33    0.35    0.40   -0.23    0.00    0.00      -0.68    0.81   -0.47
#  11   15.41   -2.84    2.89   -7.03    0.38    0.00    0.00       8.82  -16.28    0.89
#  12  -14.42   -0.08    0.01    6.48    0.22    0.00    0.00      -7.80   16.82    0.56
#  13  -15.88   -0.15    0.04    8.44    0.27    0.00    0.00      -7.28   18.01    0.57
#  14    0.10   -0.95    0.18    0.22   -0.17    0.00    0.00      -0.62    0.63   -0.47
#  15    1.88   -0.66    0.05   -1.17   -0.07    0.00    0.00       0.04   -3.57   -0.22
#  16    0.24   -1.55    0.33    1.15   -0.95    0.00    0.00      -0.79    2.66   -2.20
#  17    0.86   -1.61    0.29   -1.96    0.93    0.00    0.00      -1.49   -4.42    2.09
#  18   -0.88   -2.82    1.57    1.40   -1.60    0.00    0.00      -2.32    2.77   -3.16
#  19   -1.80   -3.14    1.03   -2.41    1.24    0.00    0.00      -5.08   -4.04    2.08
#  20   -0.68   -2.16    0.68   -0.19   -0.21    0.00    0.00      -2.56   -0.35   -0.38
#  21   -0.73   -2.07    0.38   -0.20   -0.19    0.00    0.00      -2.81   -0.33   -0.31
#  22   -1.63   -2.33    0.58   -0.75   -0.26    0.00    0.00      -4.40   -1.16   -0.40
#  23   -0.11   -3.26    1.21    0.06   -0.30    0.00    0.00      -2.39    0.10   -0.46
#  24   -0.91   -3.68    1.92   -0.88   -0.29    0.00    0.00      -3.84   -1.39   -0.46
#  25    3.67   -3.00    2.85    0.55   -0.42    0.00    0.00       3.64    0.86   -0.66
#  26   -2.39   -1.92    0.47   -0.35    0.56    0.00    0.00      -3.63   -0.55    0.88
#  27    0.04   -1.79    1.57   -0.05   -0.17    0.00    0.00      -0.40   -0.08   -0.27
#  28   -1.53   -1.81    0.47   -0.47   -0.27    0.00    0.00      -3.61   -0.77   -0.44
#  29   -0.95   -1.33    0.21   -0.48   -0.28    0.00    0.00      -2.83   -0.75   -0.44
#  30   -6.56   -2.88    1.52   -0.92    1.57    0.00    0.00      -7.27   -1.54    2.61
#  31    2.77   -2.73    0.93    0.37   -0.43    0.00    0.00       0.90    0.62   -0.73
#  32   -1.42   -4.03    2.16   -0.49   -0.28    0.00    0.00      -4.05   -0.81   -0.46
#  33   -1.11   -3.84    4.23   -0.22   -0.26    0.00    0.00      -1.20   -0.39   -0.45
#  34   -0.14   -0.06    0.00    2.93    0.37    0.00    0.00       3.10    4.68    0.59
#  35    1.93   -0.03    0.00    2.01    0.17    0.00    0.00       4.08    4.35    0.36
#  36   -0.35   -0.68    0.23    0.54   -0.12    0.00    0.00      -0.38    1.24   -0.28
#  37   -0.63   -0.23    0.03    0.43   -0.06    0.00    0.00      -0.46    2.12   -0.28
#  38   -1.09   -0.51    0.16    0.36   -0.10    0.00    0.00      -1.17    0.98   -0.28
#  39   -1.26   -0.29    0.07    0.75   -0.08    0.00    0.00      -0.81    2.67   -0.28
#  40   -0.87   -0.26    0.03    0.10   -0.07    0.00    0.00      -1.07    0.33   -0.24
#  41   -3.63   -0.76    0.64    2.27   -0.13    0.00    0.00      -1.61    4.93   -0.28
#  42   -2.89   -0.39    0.07    1.35   -0.11    0.00    0.00      -1.96    3.55   -0.28
#  43   -2.53   -0.23    0.04    1.28   -0.06    0.00    0.00      -1.49    6.01   -0.28
#  44   -3.15   -0.51    0.37    1.26   -0.09    0.00    0.00      -2.12    3.87   -0.28
#  45   -1.06   -0.28    0.04    0.45   -0.07    0.00    0.00      -0.91    1.94   -0.28
#  46   -1.19   -0.13    0.00    0.40   -0.03    0.00    0.00      -0.95    3.34   -0.28
#  47   -1.78   -1.33    4.81    1.18   -0.12    0.00    0.00       2.77    2.72   -0.28
#  48    1.18   -0.55    0.25    1.02   -0.11    0.00    0.00       1.79    2.18   -0.24
#  49   -0.04   -0.77    0.23    2.04   -0.17    0.00    0.00       1.29    3.27   -0.28
#  50    0.22   -1.01    0.60    0.94   -0.17    0.00    0.00       0.58    1.53   -0.28
#  51    1.13   -1.26    5.21    0.13   -0.11    0.00    0.00       5.10    0.28   -0.23
#  52    0.87   -0.81    0.38    0.23   -0.15    0.00    0.00       0.52    0.42   -0.28
#  53    1.19   -0.66    0.21    0.39   -0.13    0.00    0.00       1.00    0.81   -0.28
#  54    0.41   -0.45    0.18    0.40   -0.14    0.00    0.00       0.40    0.78   -0.28
#  55    0.58   -0.57    0.35    0.21   -0.15    0.00    0.00       0.42    0.40   -0.28
#  56    0.41   -1.92    5.33    0.56   -0.18    0.00    0.00       4.20    0.87   -0.28
#  57    1.50   -1.00    1.47    0.73   -0.14    0.00    0.00       2.58    1.47   -0.28

@<TRIPOS>MOLECULE
             1551        86
   57    62     0     0     0



@<TRIPOS>ATOM
      1 N1         19.9115    12.9423    63.8347 N.pl3      1          -0.8257
      2 C1         21.1282    13.5647    63.6327 C.ar       1           0.5218
      3 C2         21.2218    14.9656    63.5883 C.ar       1          -0.3266
      4 C3         20.2708    16.0702    63.7123 C.2        1           0.1875
      5 N2         20.9485    17.1866    63.5833 N.2        1          -0.2434
      6 N3         22.3024    16.8999    63.3793 N.pl3      1          -0.3870
      7 C4         23.3598    17.8969    63.1939 C.3        1           0.1486
      8 C5         22.8829    18.9694    62.2126 C.3        1          -0.1198
      9 C6         22.1059    18.3091    61.0700 C.3        1          -0.1427
     10 C7         21.7007    19.3771    60.0519 C.3        1          -0.0058
     11 N4         22.9021    20.0284    59.5162 N.4        1          -0.5054
     12 H1         23.5080    19.3318    59.1093 H          1           0.4284
     13 H2         22.6345    20.6951    58.8077 H          1           0.4324
     14 C8         23.6142    20.7244    60.5947 C.3        1          -0.0046
     15 C9         24.0931    19.7081    61.6336 C.3        1          -0.1407
     16 C10        22.4852    15.5491    63.3798 C.ar       1           0.3785
     17 N5         23.5418    14.7496    63.2331 N.ar       1          -0.5786
     18 C11        23.4063    13.4428    63.2825 C.ar       1           0.3938
     19 N6         22.2406    12.8529    63.4808 N.ar       1          -0.5987
     20 C12        18.8113    15.9506    63.9407 C.ar       1          -0.0446
     21 C13        18.3430    15.3231    65.0820 C.ar       1          -0.0625
     22 C14        16.9616    15.2141    65.2905 C.ar       1          -0.1368
     23 C15        16.4449    14.5824    66.4408 C.ar       1          -0.0223
     24 C16        15.0915    14.5095    66.5844 C.ar       1          -0.1713
     25 C17        14.2557    15.0548    65.6021 C.ar       1           0.3714
     26 O1         12.9114    14.9751    65.7590 O.3        1          -0.2711
     27 C18        12.1808    14.2760    64.7492 C.3        1           0.0055
     28 C19        11.8451    15.0373    63.4653 C.3        1          -0.1774
     29 C20        10.7430    14.7244    64.4794 C.3        1          -0.1725
     30 N7         14.7428    15.6430    64.5311 N.ar       1          -0.5413
     31 C21        16.0620    15.7459    64.3333 C.ar       1           0.1865
     32 C22        16.5706    16.3771    63.1842 C.ar       1          -0.0955
     33 C23        17.9126    16.4795    63.0009 C.ar       1          -0.0637
     34 H3         19.8617    11.9743    63.8692 H          1           0.4145
     35 H4         19.1076    13.4736    63.9461 H          1           0.4146
     36 H5         23.5947    18.3599    64.1523 H          1           0.1082
     37 H6         24.2512    17.4115    62.7967 H          1           0.1016
     38 H7         22.2377    19.6779    62.7320 H          1           0.0961
     39 H8         22.7359    17.5637    60.5845 H          1           0.0936
     40 H9         21.2125    17.8280    61.4680 H          1           0.1122
     41 H10        21.1471    18.9104    59.2372 H          1           0.1343
     42 H11        21.0706    20.1218    60.5384 H          1           0.1286
     43 H12        24.4733    21.2523    60.1805 H          1           0.1369
     44 H13        22.9433    21.4403    61.0695 H          1           0.1309
     45 H14        24.6200    20.2271    62.4343 H          1           0.1184
     46 H15        24.7643    18.9920    61.1597 H          1           0.0941
     47 H16        24.2845    12.8262    63.1595 H          1           0.2078
     48 H17        19.0364    14.9204    65.8056 H          1           0.1386
     49 H18        17.1045    14.1669    67.1884 H          1           0.1524
     50 H19        14.6646    14.0318    67.4538 H          1           0.1520
     51 H20        12.4011    13.2122    64.6610 H          1           0.1420
     52 H21        12.1816    16.0713    63.3907 H          1           0.1040
     53 H22        11.8446    14.4744    62.5319 H          1           0.1082
     54 H23        10.0176    13.9555    64.2132 H          1           0.1095
     55 H24        10.3545    15.5525    65.0720 H          1           0.1049
     56 H25        15.8930    16.7857    62.4490 H          1           0.1439
     57 H26        18.2936    16.9704    62.1173 H          1           0.1362
@<TRIPOS>BOND
     1    1    2 1
     2    1   34 1
     3    1   35 1
     4    2   19 ar
     5    2    3 ar
     6    3   16 ar
     7    3    4 1
     8    4    5 2
     9    4   20 1
    10    5    6 1
    11    6    7 1
    12    6   16 1
    13    7    8 1
    14    7   36 1
    15    7   37 1
    16    8   15 1
    17    8    9 1
    18    8   38 1
    19    9   10 1
    20    9   39 1
    21    9   40 1
    22   10   11 1
    23   10   41 1
    24   10   42 1
    25   11   12 1
    26   11   13 1
    27   11   14 1
    28   14   15 1
    29   14   43 1
    30   14   44 1
    31   15   45 1
    32   15   46 1
    33   16   17 ar
    34   17   18 ar
    35   18   19 ar
    36   18   47 1
    37   20   33 ar
    38   20   21 ar
    39   21   22 ar
    40   21   48 1
    41   22   31 ar
    42   22   23 ar
    43   23   24 ar
    44   23   49 1
    45   24   25 ar
    46   24   50 1
    47   25   26 1
    48   25   30 ar
    49   26   27 1
    50   27   29 1
    51   27   28 1
    52   27   51 1
    53   28   29 1
    54   28   52 1
    55   28   53 1
    56   29   54 1
    57   29   55 1
    58   30   31 ar
    59   31   32 ar
    60   32   33 ar
    61   32   56 1
    62   33   57 1
##########                 Name:                 1551
##########          Protonation:                   86
##########               SMILES:   c1cc(nc2c1cc(cc2)c3c4c(ncnc4n(n3)CC5CC[NH2+]CC5)N)OC6CC6
##########            Long Name:   )-6-quinolyl]-1-(piperidin-1-ium-4-ylmethyl)pyrazolo[3,4-d]pyrimidin-4-amine
##########          FlexRecCode: 1
##########               Number:                   19
##########   Ligand Source File: /raid1/people/rgc/Examples/tdt/part3/ligand22set/build/ligand22set-0000001.db2.g
##########           GlobalRank: 3
##########                 Rank:                    2
##########               Setnum:                   55
##########             Matchnum:                11273
##########                Cloud:                    1
##########        Electrostatic:           -32.477997
##########        Van der Waals:           -28.766157
##########  Ligand Polar Desolv:            12.874258
########## Ligand Apolar Desolv:            -4.200823
##########      Internal Energy:             0.000000
##########      Receptor Energy: 0.0
########## Receptor Desolvation:             0.000000
########## Receptor Hydrophobic:             0.000000
##########         Total Energy: -52.57
##########        Ligand Charge:             1.000000
##########            Arbitrary:    +999.9990
##########     heavy atom count:   31
##########           pose count:   10
##########        Ligand Energy:             0.000000
# num electro vdwattr vdwrepu polsolv apolsol rdesolv rhydroe totalscore fullpol fullapo
#   1   -2.50   -2.46    0.47   -5.03    0.52    0.00    0.00      -9.00   -7.90    0.81
#   2    1.86   -1.96    0.39    2.14   -1.30    0.00    0.00       1.13    3.55   -2.15
#   3   -1.27   -1.65    0.40   -1.36   -0.23    0.00    0.00      -4.11   -2.65   -0.44
#   4    1.74   -1.99    0.62    0.65   -0.36    0.00    0.00       0.67    1.36   -0.75
#   5   -1.63   -2.75    1.80   -1.04    0.51    0.00    0.00      -3.11   -2.23    1.09
#   6    0.04   -1.53    0.22   -1.71    0.43    0.00    0.00      -2.54   -3.90    0.98
#   7   -0.73   -1.02    0.13    0.71   -0.18    0.00    0.00      -1.08    1.73   -0.43
#   8    1.29   -0.82    0.07   -0.85   -0.06    0.00    0.00      -0.36   -2.08   -0.15
#   9    2.26   -0.71    0.06   -1.33   -0.09    0.00    0.00       0.19   -3.41   -0.22
#  10    0.15   -1.49    0.57    0.36   -0.21    0.00    0.00      -0.61    0.81   -0.47
#  11   13.00   -1.80    0.97   -6.01    0.33    0.00    0.00       6.48  -16.28    0.89
#  12   -9.99   -0.03    0.00    3.50    0.12    0.00    0.00      -6.39   16.82    0.56
#  13  -12.43   -0.06    0.00    6.94    0.22    0.00    0.00      -5.33   18.01    0.57
#  14    0.10   -1.84    2.33    0.23   -0.17    0.00    0.00       0.64    0.63   -0.47
#  15    1.75   -1.47    0.67   -1.31   -0.08    0.00    0.00      -0.44   -3.57   -0.22
#  16    0.24   -1.55    0.33    1.15   -0.95    0.00    0.00      -0.79    2.66   -2.20
#  17    0.86   -1.61    0.29   -1.96    0.93    0.00    0.00      -1.49   -4.42    2.09
#  18   -0.88   -2.82    1.57    1.40   -1.60    0.00    0.00      -2.32    2.77   -3.16
#  19   -1.80   -3.14    1.03   -2.41    1.24    0.00    0.00      -5.08   -4.04    2.08
#  20   -0.68   -2.16    0.68   -0.19   -0.21    0.00    0.00      -2.56   -0.35   -0.38
#  21   -0.73   -2.07    0.38   -0.20   -0.19    0.00    0.00      -2.81   -0.33   -0.31
#  22   -1.63   -2.33    0.58   -0.75   -0.26    0.00    0.00      -4.40   -1.16   -0.40
#  23   -0.11   -3.26    1.21    0.06   -0.30    0.00    0.00      -2.39    0.10   -0.46
#  24   -0.91   -3.68    1.92   -0.88   -0.29    0.00    0.00      -3.84   -1.39   -0.46
#  25    3.67   -3.00    2.85    0.55   -0.42    0.00    0.00       3.64    0.86   -0.66
#  26   -2.39   -1.92    0.47   -0.35    0.56    0.00    0.00      -3.63   -0.55    0.88
#  27    0.05   -1.52    0.40   -0.05   -0.17    0.00    0.00      -1.30   -0.08   -0.27
#  28   -0.97   -1.49    0.36   -0.49   -0.28    0.00    0.00      -2.87   -0.77   -0.44
#  29   -1.39   -1.57    0.37   -0.47   -0.27    0.00    0.00      -3.33   -0.75   -0.44
#  30   -6.56   -2.88    1.52   -0.92    1.57    0.00    0.00      -7.27   -1.54    2.61
#  31    2.77   -2.73    0.93    0.37   -0.43    0.00    0.00       0.90    0.62   -0.73
#  32   -1.42   -4.03    2.16   -0.49   -0.28    0.00    0.00      -4.05   -0.81   -0.46
#  33   -1.11   -3.84    4.23   -0.22   -0.26    0.00    0.00      -1.20   -0.39   -0.45
#  34   -0.14   -0.06    0.00    2.93    0.37    0.00    0.00       3.10    4.68    0.59
#  35    1.93   -0.03    0.00    2.01    0.17    0.00    0.00       4.08    4.35    0.36
#  36   -0.35   -0.68    0.23    0.54   -0.12    0.00    0.00      -0.38    1.24   -0.28
#  37   -0.63   -0.23    0.03    0.43   -0.06    0.00    0.00      -0.46    2.12   -0.28
#  38   -0.98   -0.35    0.06    0.32   -0.09    0.00    0.00      -1.05    0.98   -0.28
#  39   -1.38   -0.17    0.01    0.51   -0.05    0.00    0.00      -1.08    2.67   -0.28
#  40   -1.48   -0.30    0.07    0.10   -0.07    0.00    0.00      -1.68    0.33   -0.24
#  41   -4.65   -1.04    1.16    2.32   -0.13    0.00    0.00      -2.35    4.93   -0.28
#  42   -3.30   -0.43    0.14    1.34   -0.11    0.00    0.00      -2.35    3.55   -0.28
#  43   -2.23   -0.48    0.48    1.49   -0.07    0.00    0.00      -0.81    6.01   -0.28
#  44   -3.58   -1.32    4.92    1.49   -0.11    0.00    0.00       1.39    3.87   -0.28
#  45   -1.13   -1.37    1.85    0.78   -0.11    0.00    0.00       0.02    1.94   -0.28
#  46   -0.86   -0.22    0.02    0.69   -0.06    0.00    0.00      -0.43    3.34   -0.28
#  47   -1.78   -1.33    4.81    1.18   -0.12    0.00    0.00       2.77    2.72   -0.28
#  48    1.18   -0.55    0.25    1.02   -0.11    0.00    0.00       1.79    2.18   -0.24
#  49   -0.04   -0.77    0.23    2.04   -0.17    0.00    0.00       1.29    3.27   -0.28
#  50    0.22   -1.01    0.60    0.94   -0.17    0.00    0.00       0.58    1.53   -0.28
#  51    1.23   -0.97    1.62    0.14   -0.12    0.00    0.00       1.90    0.28   -0.23
#  52    0.57   -0.39    0.07    0.23   -0.15    0.00    0.00       0.32    0.42   -0.28
#  53    0.39   -0.79    0.69    0.45   -0.16    0.00    0.00       0.58    0.81   -0.28
#  54    1.08   -0.87    0.46    0.41   -0.15    0.00    0.00       0.93    0.78   -0.28
#  55    0.91   -0.63    0.81    0.17   -0.12    0.00    0.00       1.14    0.40   -0.28
#  56    0.41   -1.92    5.33    0.56   -0.18    0.00    0.00       4.20    0.87   -0.28
#  57    1.50   -1.00    1.47    0.73   -0.14    0.00    0.00       2.58    1.47   -0.28

@<TRIPOS>MOLECULE
             1551        86
   57    62     0     0     0



@<TRIPOS>ATOM
      1 N1         19.9115    12.9423    63.8347 N.pl3      1          -0.8257
      2 C1         21.1282    13.5647    63.6327 C.ar       1           0.5218
      3 C2         21.2218    14.9656    63.5883 C.ar       1          -0.3266
      4 C3         20.2708    16.0702    63.7123 C.2        1           0.1875
      5 N2         20.9485    17.1866    63.5833 N.2        1          -0.2434
      6 N3         22.3024    16.8999    63.3793 N.pl3      1          -0.3870
      7 C4         23.3598    17.8969    63.1939 C.3        1           0.1486
      8 C5         22.8829    18.9694    62.2126 C.3        1          -0.1198
      9 C6         23.0374    18.4561    60.7781 C.3        1          -0.1427
     10 C7         22.6340    19.5617    59.8002 C.3        1          -0.0058
     11 N4         23.4961    20.7332    59.9978 N.4        1          -0.5054
     12 H1         24.4612    20.4626    59.8819 H          1           0.4284
     13 H2         23.2622    21.4404    59.3171 H          1           0.4324
     14 C8         23.2998    21.2741    61.3481 C.3        1          -0.0046
     15 C9         23.7289    20.2343    62.3855 C.3        1          -0.1407
     16 C10        22.4852    15.5491    63.3798 C.ar       1           0.3785
     17 N5         23.5418    14.7496    63.2331 N.ar       1          -0.5786
     18 C11        23.4063    13.4428    63.2825 C.ar       1           0.3938
     19 N6         22.2406    12.8529    63.4808 N.ar       1          -0.5987
     20 C12        18.8113    15.9506    63.9407 C.ar       1          -0.0446
     21 C13        18.3430    15.3231    65.0820 C.ar       1          -0.0625
     22 C14        16.9616    15.2141    65.2905 C.ar       1          -0.1368
     23 C15        16.4449    14.5824    66.4408 C.ar       1          -0.0223
     24 C16        15.0915    14.5095    66.5844 C.ar       1          -0.1713
     25 C17        14.2557    15.0548    65.6021 C.ar       1           0.3714
     26 O1         12.9114    14.9751    65.7590 O.3        1          -0.2711
     27 C18        12.1029    15.5467    64.7285 C.3        1           0.0055
     28 C19        10.6591    15.0549    64.6089 C.3        1          -0.1774
     29 C20        11.6974    14.6405    63.5643 C.3        1          -0.1725
     30 N7         14.7428    15.6430    64.5311 N.ar       1          -0.5413
     31 C21        16.0620    15.7459    64.3333 C.ar       1           0.1865
     32 C22        16.5706    16.3771    63.1842 C.ar       1          -0.0955
     33 C23        17.9126    16.4795    63.0009 C.ar       1          -0.0637
     34 H3         19.8617    11.9743    63.8692 H          1           0.4145
     35 H4         19.1076    13.4736    63.9461 H          1           0.4146
     36 H5         23.5947    18.3599    64.1523 H          1           0.1082
     37 H6         24.2512    17.4115    62.7967 H          1           0.1016
     38 H7         21.8359    19.2019    62.4069 H          1           0.0961
     39 H8         24.0758    18.1753    60.6018 H          1           0.0936
     40 H9         22.3949    17.5879    60.6310 H          1           0.1122
     41 H10        22.7426    19.1995    58.7779 H          1           0.1343
     42 H11        21.5954    19.8416    59.9772 H          1           0.1286
     43 H12        23.9000    22.1759    61.4686 H          1           0.1369
     44 H13        22.2471    21.5174    61.4921 H          1           0.1309
     45 H14        23.5807    20.6371    63.3874 H          1           0.1184
     46 H15        24.7817    19.9905    62.2426 H          1           0.0941
     47 H16        24.2845    12.8262    63.1595 H          1           0.2078
     48 H17        19.0364    14.9204    65.8056 H          1           0.1386
     49 H18        17.1045    14.1669    67.1884 H          1           0.1524
     50 H19        14.6646    14.0318    67.4538 H          1           0.1520
     51 H20        12.2979    16.5957    64.5057 H          1           0.1420
     52 H21        10.3258    14.2954    65.3161 H          1           0.1040
     53 H22         9.9037    15.7805    64.3073 H          1           0.1082
     54 H23        11.6252    15.0936    62.5756 H          1           0.1095
     55 H24        12.0472    13.6085    63.5843 H          1           0.1049
     56 H25        15.8930    16.7857    62.4490 H          1           0.1439
     57 H26        18.2936    16.9704    62.1173 H          1           0.1362
@<TRIPOS>BOND
     1    1    2 1
     2    1   34 1
     3    1   35 1
     4    2   19 ar
     5    2    3 ar
     6    3   16 ar
     7    3    4 1
     8    4    5 2
     9    4   20 1
    10    5    6 1
    11    6    7 1
    12    6   16 1
    13    7    8 1
    14    7   36 1
    15    7   37 1
    16    8   15 1
    17    8    9 1
    18    8   38 1
    19    9   10 1
    20    9   39 1
    21    9   40 1
    22   10   11 1
    23   10   41 1
    24   10   42 1
    25   11   12 1
    26   11   13 1
    27   11   14 1
    28   14   15 1
    29   14   43 1
    30   14   44 1
    31   15   45 1
    32   15   46 1
    33   16   17 ar
    34   17   18 ar
    35   18   19 ar
    36   18   47 1
    37   20   33 ar
    38   20   21 ar
    39   21   22 ar
    40   21   48 1
    41   22   31 ar
    42   22   23 ar
    43   23   24 ar
    44   23   49 1
    45   24   25 ar
    46   24   50 1
    47   25   26 1
    48   25   30 ar
    49   26   27 1
    50   27   29 1
    51   27   28 1
    52   27   51 1
    53   28   29 1
    54   28   52 1
    55   28   53 1
    56   29   54 1
    57   29   55 1
    58   30   31 ar
    59   31   32 ar
    60   32   33 ar
    61   32   56 1
    62   33   57 1
##########                 Name:                 1551
##########          Protonation:                   86
##########               SMILES:   c1cc(nc2c1cc(cc2)c3c4c(ncnc4n(n3)CC5CC[NH2+]CC5)N)OC6CC6
##########            Long Name:   )-6-quinolyl]-1-(piperidin-1-ium-4-ylmethyl)pyrazolo[3,4-d]pyrimidin-4-amine
##########          FlexRecCode: 1
##########               Number:                   27
##########   Ligand Source File: /raid1/people/rgc/Examples/tdt/part3/ligand22set/build/ligand22set-0000001.db2.g
##########           GlobalRank: 3
##########                 Rank:                    1
##########               Setnum:                  159
##########             Matchnum:                48240
##########                Cloud:                    1
##########        Electrostatic:           -27.878178
##########        Van der Waals:           -31.697893
##########  Ligand Polar Desolv:            11.781419
########## Ligand Apolar Desolv:            -4.353712
##########      Internal Energy:             0.000000
##########      Receptor Energy: 0.0
########## Receptor Desolvation:             0.000000
########## Receptor Hydrophobic:             0.000000
##########         Total Energy: -52.15
##########        Ligand Charge:             1.000000
##########            Arbitrary:    +999.9990
##########     heavy atom count:   31
##########           pose count:   10
##########        Ligand Energy:             0.000000
# num electro vdwattr vdwrepu polsolv apolsol rdesolv rhydroe totalscore fullpol fullapo
#   1    0.05   -4.55    3.23   -5.06    0.52    0.00    0.00      -5.81   -7.90    0.81
#   2    1.92   -2.90    1.44    2.26   -1.37    0.00    0.00       1.35    3.55   -2.15
#   3   -1.73   -2.04    0.61   -1.56   -0.26    0.00    0.00      -4.98   -2.65   -0.44
#   4    1.78   -2.51    1.70    0.71   -0.39    0.00    0.00       1.29    1.36   -0.75
#   5   -2.17   -4.67    8.00   -1.07    0.53    0.00    0.00       0.61   -2.23    1.09
#   6   -1.38   -2.74    1.75   -1.79    0.45    0.00    0.00      -3.71   -3.90    0.98
#   7   -0.04   -1.78    0.72    0.78   -0.19    0.00    0.00      -0.52    1.73   -0.43
#   8    0.58   -1.02    0.11   -0.89   -0.06    0.00    0.00      -1.28   -2.08   -0.15
#   9    0.91   -0.79    0.10   -1.48   -0.10    0.00    0.00      -1.35   -3.41   -0.22
#  10    0.09   -0.84    0.07    0.38   -0.22    0.00    0.00      -0.53    0.81   -0.47
#  11   10.34   -1.04    0.13   -6.43    0.35    0.00    0.00       3.35  -16.28    0.89
#  12   -8.58   -0.02    0.00    4.54    0.15    0.00    0.00      -3.91   16.82    0.56
#  13  -12.04   -0.03    0.00    6.19    0.20    0.00    0.00      -5.69   18.01    0.57
#  14    0.07   -0.73    0.08    0.22   -0.16    0.00    0.00      -0.53    0.63   -0.47
#  15    1.21   -0.91    0.15   -1.23   -0.08    0.00    0.00      -0.86   -3.57   -0.22
#  16    1.26   -2.25    0.93    1.34   -1.11    0.00    0.00       0.17    2.66   -2.20
#  17   -0.72   -2.70    1.60   -2.29    1.08    0.00    0.00      -3.03   -4.42    2.09
#  18    1.31   -4.79    4.49    1.62   -1.85    0.00    0.00       0.78    2.77   -3.16
#  19   -3.84   -5.22    3.75   -2.64    1.36    0.00    0.00      -6.59   -4.04    2.08
#  20   -0.58   -2.04    0.40   -0.21   -0.22    0.00    0.00      -2.65   -0.35   -0.38
#  21   -0.55   -2.43    0.45   -0.21   -0.19    0.00    0.00      -2.93   -0.33   -0.31
#  22   -1.19   -2.66    0.65   -0.75   -0.26    0.00    0.00      -4.22   -1.16   -0.40
#  23   -0.03   -4.26    1.82    0.07   -0.31    0.00    0.00      -2.71    0.10   -0.46
#  24   -0.65   -4.61    2.61   -0.90   -0.30    0.00    0.00      -3.85   -1.39   -0.46
#  25    3.38   -2.65    0.76    0.57   -0.43    0.00    0.00       1.62    0.86   -0.66
#  26   -2.36   -2.65    1.21   -0.36    0.58    0.00    0.00      -3.58   -0.55    0.88
#  27    0.04   -1.47    0.34   -0.05   -0.17    0.00    0.00      -1.31   -0.08   -0.27
#  28   -1.28   -1.66    0.45   -0.49   -0.28    0.00    0.00      -3.25   -0.77   -0.44
#  29   -0.96   -1.80    0.91   -0.47   -0.27    0.00    0.00      -2.59   -0.75   -0.44
#  30   -6.60   -2.32    0.64   -1.00    1.69    0.00    0.00      -7.59   -1.54    2.61
#  31    2.64   -2.52    0.79    0.39   -0.46    0.00    0.00       0.83    0.62   -0.73
#  32   -1.68   -3.12    1.24   -0.48   -0.27    0.00    0.00      -4.32   -0.81   -0.46
#  33   -1.20   -2.72    1.15   -0.23   -0.26    0.00    0.00      -3.26   -0.39   -0.45
#  34   -4.06   -0.20    0.08    3.06    0.39    0.00    0.00      -0.73    4.68    0.59
#  35    1.27   -0.06    0.00    2.20    0.18    0.00    0.00       3.59    4.35    0.36
#  36    0.20   -1.37    1.84    0.64   -0.15    0.00    0.00       1.17    1.24   -0.28
#  37   -0.21   -0.39    0.11    0.62   -0.08    0.00    0.00       0.05    2.12   -0.28
#  38   -0.41   -0.52    0.12    0.44   -0.12    0.00    0.00      -0.49    0.98   -0.28
#  39   -0.67   -0.31    0.14    0.60   -0.06    0.00    0.00      -0.30    2.67   -0.28
#  40   -0.02   -0.28    0.05    0.10   -0.07    0.00    0.00      -0.23    0.33   -0.24
#  41   -2.40   -0.33    0.04    1.88   -0.11    0.00    0.00      -0.92    4.93   -0.28
#  42   -1.95   -0.35    0.07    1.15   -0.09    0.00    0.00      -1.17    3.55   -0.28
#  43   -1.83   -0.14    0.01    0.88   -0.04    0.00    0.00      -1.13    6.01   -0.28
#  44   -2.22   -0.56    0.50    1.07   -0.08    0.00    0.00      -1.28    3.87   -0.28
#  45   -0.81   -0.73    0.60    0.62   -0.09    0.00    0.00      -0.41    1.94   -0.28
#  46   -0.81   -0.16    0.01    0.48   -0.04    0.00    0.00      -0.52    3.34   -0.28
#  47    0.01   -2.05    5.14    1.53   -0.16    0.00    0.00       4.47    2.72   -0.28
#  48    0.76   -0.72    0.38    1.24   -0.14    0.00    0.00       1.52    2.18   -0.24
#  49   -0.85   -1.20    0.56    2.18   -0.19    0.00    0.00       0.50    3.27   -0.28
#  50    0.24   -1.97    3.45    1.03   -0.19    0.00    0.00       2.56    1.53   -0.28
#  51    1.02   -0.58    0.26    0.14   -0.11    0.00    0.00       0.72    0.28   -0.23
#  52    0.83   -0.94    1.14    0.22   -0.15    0.00    0.00       1.10    0.42   -0.28
#  53    0.80   -0.48    0.07    0.39   -0.13    0.00    0.00       0.65    0.81   -0.28
#  54    0.43   -0.50    0.25    0.42   -0.15    0.00    0.00       0.44    0.78   -0.28
#  55    0.62   -1.25    3.50    0.22   -0.15    0.00    0.00       2.94    0.40   -0.28
#  56    1.56   -1.24    2.20    0.51   -0.16    0.00    0.00       2.87    0.87   -0.28
#  57    2.64   -0.80    1.07    0.71   -0.13    0.00    0.00       3.48    1.47   -0.28

@<TRIPOS>MOLECULE
             1551        86
   57    62     0     0     0



@<TRIPOS>ATOM
      1 N1         19.2494    12.4416    64.5702 N.pl3      1          -0.8257
      2 C1         20.5303    12.9277    64.3926 C.ar       1           0.5218
      3 C2         20.7825    14.3095    64.3934 C.ar       1          -0.3266
      4 C3         19.9622    15.5106    64.5493 C.2        1           0.1875
      5 N2         20.7631    16.5462    64.4586 N.2        1          -0.2434
      6 N3         22.0772    16.1142    64.2505 N.pl3      1          -0.3870
      7 C4         23.2422    16.9898    64.1009 C.3        1           0.1486
      8 C5         22.8973    18.1398    63.1526 C.3        1          -0.1198
      9 C6         22.0586    17.6083    61.9868 C.3        1          -0.1427
     10 C7         21.7846    18.7469    61.0019 C.3        1          -0.0058
     11 N4         23.0561    19.2739    60.4916 N.4        1          -0.5054
     12 H1         23.5819    18.5261    60.0648 H          1           0.4284
     13 H2         22.8709    19.9887    59.8038 H          1           0.4324
     14 C8         23.8347    19.8504    61.5944 C.3        1          -0.0046
     15 C9         24.1876    18.7541    62.6020 C.3        1          -0.1407
     16 C10        22.1056    14.7519    64.2083 C.ar       1           0.3785
     17 N5         23.0656    13.8426    64.0400 N.ar       1          -0.5786
     18 C11        22.7824    12.5587    64.0470 C.ar       1           0.3938
     19 N6         21.5559    12.0992    64.2220 N.ar       1          -0.5987
     20 C12        18.4970    15.5506    64.7684 C.ar       1          -0.0446
     21 C13        17.9522    14.9448    65.8872 C.ar       1          -0.0625
     22 C14        16.5658    14.9870    66.0871 C.ar       1          -0.1368
     23 C15        15.9724    14.3823    67.2148 C.ar       1          -0.0223
     24 C16        14.6186    14.4593    67.3510 C.ar       1          -0.1713
     25 C17        13.8572    15.1266    66.3836 C.ar       1           0.3714
     26 O1         12.5114    15.1952    66.5330 O.3        1          -0.2711
     27 C18        11.7135    14.6157    65.4987 C.3        1           0.0055
     28 C19        11.4757    15.4502    64.2385 C.3        1          -0.1774
     29 C20        10.3379    15.2329    65.2381 C.3        1          -0.1725
     30 N7         14.4156    15.6889    65.3338 N.ar       1          -0.5413
     31 C21        15.7394    15.6474    65.1442 C.ar       1           0.1865
     32 C22        16.3246    16.2525    64.0178 C.ar       1          -0.0955
     33 C23        17.6709    16.2075    63.8426 C.ar       1          -0.0637
     34 H3         19.0899    11.4847    64.5734 H          1           0.4145
     35 H4         18.5102    13.0570    64.6956 H          1           0.4146
     36 H5         23.5211    17.3929    65.0745 H          1           0.1082
     37 H6         24.0757    16.4190    63.6916 H          1           0.1016
     38 H7         22.3329    18.9004    63.6921 H          1           0.0961
     39 H8         22.6035    16.8119    61.4798 H          1           0.0936
     40 H9         21.1135    17.2197    62.3658 H          1           0.1122
     41 H10        21.1876    18.3719    60.1706 H          1           0.1343
     42 H11        21.2396    19.5427    61.5097 H          1           0.1286
     43 H12        24.7510    20.2899    61.2006 H          1           0.1369
     44 H13        23.2460    20.6225    62.0895 H          1           0.1309
     45 H14        24.7642    19.1844    63.4209 H          1           0.1184
     46 H15        24.7766    17.9815    62.1079 H          1           0.0941
     47 H16        23.5858    11.8505    63.9075 H          1           0.2078
     48 H17        18.5901    14.4434    66.6001 H          1           0.1386
     49 H18        16.5752    13.8713    67.9510 H          1           0.1524
     50 H19        14.1339    14.0061    68.2031 H          1           0.1520
     51 H20        11.8123    13.5371    65.3772 H          1           0.1420
     52 H21        11.9279    16.4412    64.1983 H          1           0.1040
     53 H22        11.4182    14.9206    63.2877 H          1           0.1082
     54 H23         9.5319    14.5602    64.9448 H          1           0.1095
     55 H24        10.0416    16.0808    65.8556 H          1           0.1049
     56 H25        15.7032    16.7583    63.2936 H          1           0.1439
     57 H26        18.1115    16.6793    62.9767 H          1           0.1362
@<TRIPOS>BOND
     1    1    2 1
     2    1   34 1
     3    1   35 1
     4    2   19 ar
     5    2    3 ar
     6    3   16 ar
     7    3    4 1
     8    4    5 2
     9    4   20 1
    10    5    6 1
    11    6    7 1
    12    6   16 1
    13    7    8 1
    14    7   36 1
    15    7   37 1
    16    8   15 1
    17    8    9 1
    18    8   38 1
    19    9   10 1
    20    9   39 1
    21    9   40 1
    22   10   11 1
    23   10   41 1
    24   10   42 1
    25   11   12 1
    26   11   13 1
    27   11   14 1
    28   14   15 1
    29   14   43 1
    30   14   44 1
    31   15   45 1
    32   15   46 1
    33   16   17 ar
    34   17   18 ar
    35   18   19 ar
    36   18   47 1
    37   20   33 ar
    38   20   21 ar
    39   21   22 ar
    40   21   48 1
    41   22   31 ar
    42   22   23 ar
    43   23   24 ar
    44   23   49 1
    45   24   25 ar
    46   24   50 1
    47   25   26 1
    48   25   30 ar
    49   26   27 1
    50   27   29 1
    51   27   28 1
    52   27   51 1
    53   28   29 1
    54   28   52 1
    55   28   53 1
    56   29   54 1
    57   29   55 1
    58   30   31 ar
    59   31   32 ar
    60   32   33 ar
    61   32   56 1
    62   33   57 1
##########                 Name:                 1551
##########          Protonation:                   86
##########               SMILES:   c1cc(nc2c1cc(cc2)c3c4c(ncnc4n(n3)CC5CC[NH2+]CC5)N)OC6CC6
##########            Long Name:   )-6-quinolyl]-1-(piperidin-1-ium-4-ylmethyl)pyrazolo[3,4-d]pyrimidin-4-amine
##########          FlexRecCode: 1
##########               Number:                   25
##########   Ligand Source File: /raid1/people/rgc/Examples/tdt/part3/ligand22set/build/ligand22set-0000001.db2.g
##########           GlobalRank: 3
##########                 Rank:                    1
##########               Setnum:                   54
##########             Matchnum:                35660
##########                Cloud:                    1
##########        Electrostatic:           -28.873322
##########        Van der Waals:           -31.289717
##########  Ligand Polar Desolv:            12.359467
########## Ligand Apolar Desolv:            -4.147823
##########      Internal Energy:             0.000000
##########      Receptor Energy: 0.0
########## Receptor Desolvation:             0.000000
########## Receptor Hydrophobic:             0.000000
##########         Total Energy: -51.95
##########        Ligand Charge:             1.000000
##########            Arbitrary:    +999.9990
##########     heavy atom count:   31
##########           pose count:   10
##########        Ligand Energy:             0.000000
# num electro vdwattr vdwrepu polsolv apolsol rdesolv rhydroe totalscore fullpol fullapo
#   1   -2.11   -2.81    0.82   -5.05    0.52    0.00    0.00      -8.64   -7.90    0.81
#   2    2.12   -2.12    0.44    2.16   -1.31    0.00    0.00       1.30    3.55   -2.15
#   3   -1.59   -1.89    0.55   -1.40   -0.23    0.00    0.00      -4.56   -2.65   -0.44
#   4    1.86   -2.63    1.81    0.67   -0.37    0.00    0.00       1.34    1.36   -0.75
#   5   -2.07   -4.96    9.83   -1.07    0.52    0.00    0.00       2.25   -2.23    1.09
#   6   -0.84   -2.54    1.16   -1.81    0.45    0.00    0.00      -3.58   -3.90    0.98
#   7   -0.35   -1.79    0.53    0.80   -0.20    0.00    0.00      -1.01    1.73   -0.43
#   8    0.94   -0.73    0.05   -0.79   -0.06    0.00    0.00      -0.58   -2.08   -0.15
#   9    1.30   -0.90    0.16   -1.07   -0.07    0.00    0.00      -0.57   -3.41   -0.22
#  10    0.08   -0.55    0.04    0.23   -0.14    0.00    0.00      -0.32    0.81   -0.47
#  11   11.25   -1.19    0.24   -5.98    0.33    0.00    0.00       4.64  -16.28    0.89
#  12   -9.39   -0.03    0.00    5.02    0.17    0.00    0.00      -4.23   16.82    0.56
#  13  -12.68   -0.04    0.00    5.83    0.18    0.00    0.00      -6.71   18.01    0.57
#  14    0.09   -0.90    0.09    0.28   -0.21    0.00    0.00      -0.64    0.63   -0.47
#  15    1.54   -0.85    0.08   -1.61   -0.10    0.00    0.00      -0.93   -3.57   -0.22
#  16    0.86   -2.04    0.67    1.22   -1.01    0.00    0.00      -0.30    2.66   -2.20
#  17   -0.06   -2.17    0.84   -2.05    0.97    0.00    0.00      -2.48   -4.42    2.09
#  18   -0.16   -2.98    1.55    1.44   -1.64    0.00    0.00      -1.78    2.77   -3.16
#  19   -2.40   -3.34    1.21   -2.44    1.26    0.00    0.00      -5.71   -4.04    2.08
#  20   -0.64   -2.13    0.54   -0.20   -0.22    0.00    0.00      -2.64   -0.35   -0.38
#  21   -0.63   -2.26    0.44   -0.20   -0.19    0.00    0.00      -2.83   -0.33   -0.31
#  22   -1.31   -2.54    0.70   -0.75   -0.26    0.00    0.00      -4.17   -1.16   -0.40
#  23   -0.03   -4.16    2.67    0.07   -0.31    0.00    0.00      -1.76    0.10   -0.46
#  24   -0.50   -4.82    4.11   -0.89   -0.29    0.00    0.00      -2.39   -1.39   -0.46
#  25    3.20   -3.37    3.55    0.54   -0.42    0.00    0.00       3.51    0.86   -0.66
#  26   -2.22   -2.21    0.65   -0.34    0.55    0.00    0.00      -3.58   -0.55    0.88
#  27    0.05   -1.39    0.28   -0.05   -0.18    0.00    0.00      -1.30   -0.08   -0.27
#  28   -0.97   -1.38    0.27   -0.49   -0.28    0.00    0.00      -2.85   -0.77   -0.44
#  29   -1.33   -1.47    0.39   -0.48   -0.28    0.00    0.00      -3.17   -0.75   -0.44
#  30   -6.32   -2.94    2.34   -0.93    1.58    0.00    0.00      -6.27   -1.54    2.61
#  31    2.60   -2.67    1.10    0.38   -0.44    0.00    0.00       0.96    0.62   -0.73
#  32   -1.60   -3.27    1.24   -0.48   -0.27    0.00    0.00      -4.38   -0.81   -0.46
#  33   -1.23   -3.24    2.63   -0.22   -0.26    0.00    0.00      -2.32   -0.39   -0.45
#  34   -0.70   -0.07    0.00    2.91    0.37    0.00    0.00       2.50    4.68    0.59
#  35    1.68   -0.04    0.00    2.07    0.17    0.00    0.00       3.89    4.35    0.36
#  36   -0.21   -0.92    0.42    0.64   -0.14    0.00    0.00      -0.22    1.24   -0.28
#  37   -0.27   -1.08    1.18    0.89   -0.12    0.00    0.00       0.61    2.12   -0.28
#  38   -0.76   -0.15    0.01    0.15   -0.04    0.00    0.00      -0.80    0.98   -0.28
#  39   -0.68   -0.54    0.21    0.84   -0.09    0.00    0.00      -0.26    2.67   -0.28
#  40   -0.92   -0.41    0.30    0.07   -0.05    0.00    0.00      -1.02    0.33   -0.24
#  41   -1.51   -0.12    0.01    0.53   -0.03    0.00    0.00      -1.12    4.93   -0.28
#  42   -2.04   -0.18    0.02    0.55   -0.04    0.00    0.00      -1.68    3.55   -0.28
#  43   -3.26   -0.37    0.08    2.23   -0.10    0.00    0.00      -1.43    6.01   -0.28
#  44   -2.79   -0.31    0.04    1.28   -0.09    0.00    0.00      -1.88    3.87   -0.28
#  45   -0.74   -0.25    0.04    0.52   -0.08    0.00    0.00      -0.51    1.94   -0.28
#  46   -1.09   -0.52    0.18    1.24   -0.10    0.00    0.00      -0.30    3.34   -0.28
#  47   -1.03   -0.91    1.23    1.20   -0.12    0.00    0.00       0.37    2.72   -0.28
#  48    0.98   -0.66    0.36    1.15   -0.13    0.00    0.00       1.70    2.18   -0.24
#  49   -0.70   -1.07    0.58    2.11   -0.18    0.00    0.00       0.75    3.27   -0.28
#  50   -0.02   -1.54    2.26    1.01   -0.19    0.00    0.00       1.53    1.53   -0.28
#  51    1.27   -0.69    0.58    0.14   -0.11    0.00    0.00       1.19    0.28   -0.23
#  52    0.57   -0.45    0.10    0.23   -0.15    0.00    0.00       0.30    0.42   -0.28
#  53    0.40   -0.62    0.35    0.44   -0.15    0.00    0.00       0.41    0.81   -0.28
#  54    0.99   -0.67    0.21    0.39   -0.14    0.00    0.00       0.78    0.78   -0.28
#  55    0.87   -0.68    1.06    0.17   -0.12    0.00    0.00       1.30    0.40   -0.28
#  56    1.15   -1.34    2.47    0.52   -0.17    0.00    0.00       2.64    0.87   -0.28
#  57    2.49   -1.12    3.04    0.72   -0.14    0.00    0.00       5.00    1.47   -0.28

@<TRIPOS>MOLECULE
             1551        86
   57    62     0     0     0



@<TRIPOS>ATOM
      1 N1         19.8771    12.8150    64.1880 N.pl3      1          -0.8257
      2 C1         21.0923    13.4605    64.0644 C.ar       1           0.5218
      3 C2         21.1710    14.8622    64.1117 C.ar       1          -0.3266
      4 C3         20.2041    15.9476    64.2750 C.2        1           0.1875
      5 N2         20.8725    17.0763    64.2385 N.2        1          -0.2434
      6 N3         22.2353    16.8162    64.0599 N.pl3      1          -0.3870
      7 C4         23.2864    17.8329    63.9715 C.3        1           0.1486
      8 C5         23.4758    18.2448    62.5102 C.3        1          -0.1198
      9 C6         24.5674    19.3149    62.4170 C.3        1          -0.1427
     10 C7         24.6962    19.7793    60.9648 C.3        1          -0.0058
     11 N4         23.4181    20.3412    60.5117 N.4        1          -0.5054
     12 H1         23.1472    21.0953    61.1250 H          1           0.4284
     13 H2         23.5211    20.6938    59.5721 H          1           0.4324
     14 C8         22.3823    19.3013    60.5302 C.3        1          -0.0046
     15 C9         22.1644    18.8186    61.9659 C.3        1          -0.1407
     16 C10        22.4336    15.4698    63.9807 C.ar       1           0.3785
     17 N5         23.5033    14.6914    63.8175 N.ar       1          -0.5786
     18 C11        23.3815    13.3828    63.7798 C.ar       1           0.3938
     19 N6         22.2170    12.7705    63.9033 N.ar       1          -0.5987
     20 C12        18.7396    15.7998    64.4489 C.ar       1          -0.0446
     21 C13        18.2433    15.0966    65.5328 C.ar       1          -0.0625
     22 C14        16.8574    14.9614    65.6900 C.ar       1          -0.1368
     23 C15        16.3125    14.2530    66.7812 C.ar       1          -0.0223
     24 C16        14.9563    14.1583    66.8767 C.ar       1          -0.1713
     25 C17        14.1452    14.7570    65.9048 C.ar       1           0.3714
     26 O1         12.7977    14.6546    66.0136 O.3        1          -0.2711
     27 C18        12.0151    15.2829    64.9963 C.3        1           0.0055
     28 C19        10.5814    14.7859    64.7998 C.3        1          -0.1774
     29 C20        11.6564    14.4486    63.7647 C.3        1          -0.1725
     30 N7         14.6585    15.4166    64.8892 N.ar       1          -0.5413
     31 C21        15.9820    15.5444    64.7403 C.ar       1           0.1865
     32 C22        16.5187    16.2522    63.6501 C.ar       1          -0.0955
     33 C23        17.8645    16.3789    63.5163 C.ar       1          -0.0637
     34 H3         19.8375    11.8462    64.1596 H          1           0.4145
     35 H4         19.0641    13.3305    64.3072 H          1           0.4146
     36 H5         22.9995    18.7042    64.5603 H          1           0.1082
     37 H6         24.2202    17.4247    64.3579 H          1           0.1016
     38 H7         23.7655    17.3748    61.9209 H          1           0.0961
     39 H8         24.3006    20.1628    63.0481 H          1           0.0936
     40 H9         25.5168    18.8963    62.7510 H          1           0.1122
     41 H10        25.4726    20.5410    60.8949 H          1           0.1343
     42 H11        24.9632    18.9307    60.3348 H          1           0.1286
     43 H12        21.4505    19.7103    60.1396 H          1           0.1369
     44 H13        22.6987    18.4631    59.9095 H          1           0.1309
     45 H14        21.3963    18.0453    61.9772 H          1           0.1184
     46 H15        21.8478    19.6562    62.5874 H          1           0.0941
     47 H16        24.2700    12.7837    63.6460 H          1           0.2078
     48 H17        18.9185    14.6555    66.2512 H          1           0.1386
     49 H18        16.9533    13.7972    67.5215 H          1           0.1524
     50 H19        14.5081    13.6223    67.7003 H          1           0.1520
     51 H20        12.2048    16.3456    64.8463 H          1           0.1420
     52 H21        10.2351    13.9798    65.4468 H          1           0.1040
     53 H22         9.8275    15.5220    64.5209 H          1           0.1082
     54 H23        11.6097    14.9629    62.8048 H          1           0.1095
     55 H24        12.0173    13.4207    63.7305 H          1           0.1049
     56 H25        15.8597    16.7002    62.9211 H          1           0.1439
     57 H26        18.2671    16.9284    62.6782 H          1           0.1362
@<TRIPOS>BOND
     1    1    2 1
     2    1   34 1
     3    1   35 1
     4    2   19 ar
     5    2    3 ar
     6    3   16 ar
     7    3    4 1
     8    4    5 2
     9    4   20 1
    10    5    6 1
    11    6    7 1
    12    6   16 1
    13    7    8 1
    14    7   36 1
    15    7   37 1
    16    8   15 1
    17    8    9 1
    18    8   38 1
    19    9   10 1
    20    9   39 1
    21    9   40 1
    22   10   11 1
    23   10   41 1
    24   10   42 1
    25   11   12 1
    26   11   13 1
    27   11   14 1
    28   14   15 1
    29   14   43 1
    30   14   44 1
    31   15   45 1
    32   15   46 1
    33   16   17 ar
    34   17   18 ar
    35   18   19 ar
    36   18   47 1
    37   20   33 ar
    38   20   21 ar
    39   21   22 ar
    40   21   48 1
    41   22   31 ar
    42   22   23 ar
    43   23   24 ar
    44   23   49 1
    45   24   25 ar
    46   24   50 1
    47   25   26 1
    48   25   30 ar
    49   26   27 1
    50   27   29 1
    51   27   28 1
    52   27   51 1
    53   28   29 1
    54   28   52 1
    55   28   53 1
    56   29   54 1
    57   29   55 1
    58   30   31 ar
    59   31   32 ar
    60   32   33 ar
    61   32   56 1
    62   33   57 1
##########                 Name:                 1551
##########          Protonation:                   86
##########               SMILES:   c1cc(nc2c1cc(cc2)c3c4c(ncnc4n(n3)CC5CC[NH2+]CC5)N)OC6CC6
##########            Long Name:   )-6-quinolyl]-1-(piperidin-1-ium-4-ylmethyl)pyrazolo[3,4-d]pyrimidin-4-amine
##########          FlexRecCode: 1
##########               Number:                   25
##########   Ligand Source File: /raid1/people/rgc/Examples/tdt/part3/ligand22set/build/ligand22set-0000001.db2.g
##########           GlobalRank: 3
##########                 Rank:                    2
##########               Setnum:                   55
##########             Matchnum:                68175
##########                Cloud:                    1
##########        Electrostatic:           -38.412270
##########        Van der Waals:           -25.982199
##########  Ligand Polar Desolv:            17.329622
########## Ligand Apolar Desolv:            -4.255411
##########      Internal Energy:             0.000000
##########      Receptor Energy: 0.0
########## Receptor Desolvation:             0.000000
########## Receptor Hydrophobic:             0.000000
##########         Total Energy: -51.32
##########        Ligand Charge:             1.000000
##########            Arbitrary:    +999.9990
##########     heavy atom count:   31
##########           pose count:   10
##########        Ligand Energy:             0.000000
# num electro vdwattr vdwrepu polsolv apolsol rdesolv rhydroe totalscore fullpol fullapo
#   1   -1.94   -3.89    3.78   -4.93    0.51    0.00    0.00      -6.47   -7.90    0.81
#   2    2.39   -2.63    1.48    2.19   -1.32    0.00    0.00       2.11    3.55   -2.15
#   3   -1.81   -1.83    0.49   -1.45   -0.24    0.00    0.00      -4.84   -2.65   -0.44
#   4    2.06   -2.01    0.61    0.69   -0.38    0.00    0.00       0.97    1.36   -0.75
#   5   -2.43   -2.75    1.88   -1.03    0.51    0.00    0.00      -3.83   -2.23    1.09
#   6   -0.63   -1.61    0.29   -1.72    0.43    0.00    0.00      -3.24   -3.90    0.98
#   7   -0.62   -0.85    0.07    0.72   -0.18    0.00    0.00      -0.85    1.73   -0.43
#   8    1.26   -0.68    0.04   -0.89   -0.06    0.00    0.00      -0.34   -2.08   -0.15
#   9    1.89   -1.33    0.71   -1.37   -0.09    0.00    0.00      -0.19   -3.41   -0.22
#  10    0.14   -2.26    1.34    0.39   -0.23    0.00    0.00      -0.61    0.81   -0.47
#  11   16.67   -4.23    9.76   -7.17    0.39    0.00    0.00      15.43  -16.28    0.89
#  12  -13.47   -0.08    0.01    5.75    0.19    0.00    0.00      -7.61   16.82    0.56
#  13  -20.02   -0.28    0.18    9.50    0.30    0.00    0.00     -10.33   18.01    0.57
#  14    0.12   -1.22    0.33    0.25   -0.19    0.00    0.00      -0.71    0.63   -0.47
#  15    2.14   -0.75    0.07   -1.37   -0.08    0.00    0.00       0.01   -3.57   -0.22
#  16    0.98   -1.80    0.46    1.23   -1.02    0.00    0.00      -0.15    2.66   -2.20
#  17   -0.56   -2.28    0.99   -2.13    1.01    0.00    0.00      -2.98   -4.42    2.09
#  18    0.88   -3.95    5.19    1.52   -1.73    0.00    0.00       1.90    2.77   -3.16
#  19   -3.00   -4.01    2.55   -2.49    1.28    0.00    0.00      -5.67   -4.04    2.08
#  20   -0.68   -2.06    0.45   -0.20   -0.22    0.00    0.00      -2.71   -0.35   -0.38
#  21   -0.81   -2.18    0.37   -0.21   -0.19    0.00    0.00      -3.03   -0.33   -0.31
#  22   -1.76   -2.40    0.55   -0.77   -0.26    0.00    0.00      -4.64   -1.16   -0.40
#  23   -0.18   -3.28    1.30    0.07   -0.30    0.00    0.00      -2.39    0.10   -0.46
#  24   -1.37   -3.14    0.92   -0.92   -0.30    0.00    0.00      -4.81   -1.39   -0.46
#  25    3.76   -2.37    0.82    0.56   -0.43    0.00    0.00       2.34    0.86   -0.66
#  26   -2.36   -1.89    0.36   -0.36    0.58    0.00    0.00      -3.67   -0.55    0.88
#  27    0.04   -1.56    0.44   -0.05   -0.17    0.00    0.00      -1.30   -0.08   -0.27
#  28   -0.82   -1.57    0.44   -0.48   -0.27    0.00    0.00      -2.70   -0.77   -0.44
#  29   -1.16   -1.34    0.24   -0.49   -0.29    0.00    0.00      -3.03   -0.75   -0.44
#  30   -6.12   -2.85    1.78   -0.93    1.58    0.00    0.00      -6.55   -1.54    2.61
#  31    2.56   -2.87    1.31    0.37   -0.43    0.00    0.00       0.94    0.62   -0.73
#  32   -1.17   -4.09    2.22   -0.49   -0.28    0.00    0.00      -3.81   -0.81   -0.46
#  33   -0.92   -3.34    1.74   -0.23   -0.26    0.00    0.00      -3.00   -0.39   -0.45
#  34   -1.11   -0.10    0.01    2.87    0.36    0.00    0.00       2.03    4.68    0.59
#  35    1.72   -0.04    0.00    1.97    0.16    0.00    0.00       3.81    4.35    0.36
#  36   -0.38   -0.43    0.06    0.50   -0.11    0.00    0.00      -0.35    1.24   -0.28
#  37   -0.51   -0.20    0.01    0.44   -0.06    0.00    0.00      -0.32    2.12   -0.28
#  38   -0.92   -0.26    0.04    0.26   -0.07    0.00    0.00      -0.95    0.98   -0.28
#  39   -1.12   -0.30    0.09    0.67   -0.07    0.00    0.00      -0.73    2.67   -0.28
#  40   -1.02   -1.12    3.56    0.12   -0.09    0.00    0.00       1.46    0.33   -0.24
#  41   -3.65   -1.75    5.46    2.82   -0.16    0.00    0.00       2.72    4.93   -0.28
#  42   -3.26   -0.69    0.49    1.66   -0.13    0.00    0.00      -1.93    3.55   -0.28
#  43   -3.33   -0.34    0.08    1.83   -0.09    0.00    0.00      -1.85    6.01   -0.28
#  44   -3.53   -0.47    0.17    1.48   -0.11    0.00    0.00      -2.46    3.87   -0.28
#  45   -1.74   -0.53    0.33    0.59   -0.08    0.00    0.00      -1.44    1.94   -0.28
#  46   -1.18   -0.14    0.00    0.44   -0.04    0.00    0.00      -0.92    3.34   -0.28
#  47    0.07   -1.01    1.20    1.37   -0.14    0.00    0.00       1.50    2.72   -0.28
#  48    1.39   -0.56    0.19    1.13   -0.12    0.00    0.00       2.03    2.18   -0.24
#  49    0.65   -0.95    0.50    2.04   -0.17    0.00    0.00       2.06    3.27   -0.28
#  50    0.87   -1.18    1.40    0.91   -0.17    0.00    0.00       1.84    1.53   -0.28
#  51    1.12   -0.95    1.14    0.15   -0.12    0.00    0.00       1.34    0.28   -0.23
#  52    0.52   -0.46    0.12    0.22   -0.15    0.00    0.00       0.26    0.42   -0.28
#  53    0.19   -0.73    0.40    0.44   -0.15    0.00    0.00       0.15    0.81   -0.28
#  54    0.82   -0.53    0.11    0.36   -0.13    0.00    0.00       0.63    0.78   -0.28
#  55    0.76   -0.50    0.30    0.17   -0.12    0.00    0.00       0.61    0.40   -0.28
#  56    0.87   -1.68    2.28    0.55   -0.18    0.00    0.00       1.84    0.87   -0.28
#  57    1.31   -1.15    2.31    0.78   -0.15    0.00    0.00       3.10    1.47   -0.28

@<TRIPOS>MOLECULE
             1551        86
   57    62     0     0     0



@<TRIPOS>ATOM
      1 N1         19.5239    12.9258    64.9010 N.pl3      1          -0.8257
      2 C1         20.7400    13.4943    64.5746 C.ar       1           0.5218
      3 C2         20.8169    14.8254    64.1326 C.ar       1          -0.3266
      4 C3         19.8470    15.8949    63.8975 C.2        1           0.1875
      5 N2         20.5149    16.9440    63.4785 N.2        1          -0.2434
      6 N3         21.8800    16.6450    63.4170 N.pl3      1          -0.3870
      7 C4         22.9313    17.5730    62.9928 C.3        1           0.1486
      8 C5         22.4835    18.3065    61.7270 C.3        1          -0.1198
      9 C6         22.7070    17.4072    60.5078 C.3        1          -0.1427
     10 C7         22.3320    18.1753    59.2386 C.3        1          -0.0058
     11 N4         23.1692    19.3754    59.1232 N.4        1          -0.5054
     12 H1         24.1418    19.1073    59.1268 H          1           0.4284
     13 H2         22.9558    19.8514    58.2596 H          1           0.4324
     14 C8         22.9073    20.2760    60.2524 C.3        1          -0.0046
     15 C9         23.3044    19.5886    61.5606 C.3        1          -0.1407
     16 C10        22.0805    15.3560    63.8130 C.ar       1           0.3785
     17 N5         23.1528    14.5750    63.9428 N.ar       1          -0.5786
     18 C11        23.0326    13.3342    64.3609 C.ar       1           0.3938
     19 N6         21.8672    12.7970    64.6762 N.ar       1          -0.5987
     20 C12        18.3807    15.8093    64.0952 C.ar       1          -0.0446
     21 C13        17.8714    15.5241    65.3501 C.ar       1          -0.0625
     22 C14        16.4838    15.4448    65.5287 C.ar       1          -0.1368
     23 C15        15.9259    15.1570    66.7918 C.ar       1          -0.0223
     24 C16        14.5687    15.0945    66.8988 C.ar       1          -0.1713
     25 C17        13.7693    15.3139    65.7702 C.ar       1           0.3714
     26 O1         12.4206    15.2487    65.8924 O.3        1          -0.2711
     27 C18        11.6503    15.4803    64.7113 C.3        1           0.0055
     28 C19        10.2195    14.9386    64.6835 C.3        1          -0.1774
     29 C20        11.3077    14.2681    63.8425 C.3        1          -0.1725
     30 N7         14.2947    15.5820    64.5946 N.ar       1          -0.5413
     31 C21        15.6199    15.6569    64.4257 C.ar       1           0.1865
     32 C22        16.1695    15.9444    63.1637 C.ar       1          -0.0955
     33 C23        17.5168    16.0236    63.0095 C.ar       1          -0.0637
     34 H3         19.4854    12.0072    65.2107 H          1           0.4145
     35 H4         18.7090    13.4463    64.8243 H          1           0.4146
     36 H5         23.1182    18.2974    63.7856 H          1           0.1082
     37 H6         23.8455    17.0166    62.7862 H          1           0.1016
     38 H7         21.4261    18.5585    61.8065 H          1           0.0961
     39 H8         23.7557    17.1138    60.4592 H          1           0.0936
     40 H9         22.0830    16.5175    60.5926 H          1           0.1122
     41 H10        22.4897    17.5378    58.3686 H          1           0.1343
     42 H11        21.2831    18.4680    59.2881 H          1           0.1286
     43 H12        23.4897    21.1892    60.1309 H          1           0.1369
     44 H13        21.8461    20.5237    60.2803 H          1           0.1309
     45 H14        23.1075    20.2581    62.3979 H          1           0.1184
     46 H15        24.3655    19.3405    61.5339 H          1           0.0941
     47 H16        23.9232    12.7306    64.4539 H          1           0.2078
     48 H17        18.5380    15.3635    66.1847 H          1           0.1386
     49 H18        16.5578    14.9902    67.6516 H          1           0.1524
     50 H19        14.1107    14.8758    67.8521 H          1           0.1520
     51 H20        11.8409    16.4255    64.2035 H          1           0.1420
     52 H21         9.8659    14.4059    65.5663 H          1           0.1040
     53 H22         9.4686    15.5280    64.1575 H          1           0.1082
     54 H23        11.2726    14.4165    62.7632 H          1           0.1095
     55 H24        11.6699    13.2943    64.1718 H          1           0.1049
     56 H25        15.5193    16.1077    62.3169 H          1           0.1439
     57 H26        17.9293    16.2497    62.0373 H          1           0.1362
@<TRIPOS>BOND
     1    1    2 1
     2    1   34 1
     3    1   35 1
     4    2   19 ar
     5    2    3 ar
     6    3   16 ar
     7    3    4 1
     8    4    5 2
     9    4   20 1
    10    5    6 1
    11    6    7 1
    12    6   16 1
    13    7    8 1
    14    7   36 1
    15    7   37 1
    16    8   15 1
    17    8    9 1
    18    8   38 1
    19    9   10 1
    20    9   39 1
    21    9   40 1
    22   10   11 1
    23   10   41 1
    24   10   42 1
    25   11   12 1
    26   11   13 1
    27   11   14 1
    28   14   15 1
    29   14   43 1
    30   14   44 1
    31   15   45 1
    32   15   46 1
    33   16   17 ar
    34   17   18 ar
    35   18   19 ar
    36   18   47 1
    37   20   33 ar
    38   20   21 ar
    39   21   22 ar
    40   21   48 1
    41   22   31 ar
    42   22   23 ar
    43   23   24 ar
    44   23   49 1
    45   24   25 ar
    46   24   50 1
    47   25   26 1
    48   25   30 ar
    49   26   27 1
    50   27   29 1
    51   27   28 1
    52   27   51 1
    53   28   29 1
    54   28   52 1
    55   28   53 1
    56   29   54 1
    57   29   55 1
    58   30   31 ar
    59   31   32 ar
    60   32   33 ar
    61   32   56 1
    62   33   57 1
##########                 Name:                 1551
##########          Protonation:                   86
##########               SMILES:   c1cc(nc2c1cc(cc2)c3c4c(ncnc4n(n3)CC5CC[NH2+]CC5)N)OC6CC6
##########            Long Name:   )-6-quinolyl]-1-(piperidin-1-ium-4-ylmethyl)pyrazolo[3,4-d]pyrimidin-4-amine
##########          FlexRecCode: 1
##########               Number:                   21
##########   Ligand Source File: /raid1/people/rgc/Examples/tdt/part3/ligand22set/build/ligand22set-0000001.db2.g
##########           GlobalRank: 6
##########                 Rank:                    2
##########               Setnum:                  143
##########             Matchnum:                10113
##########                Cloud:                    1
##########        Electrostatic:           -30.603550
##########        Van der Waals:           -26.060772
##########  Ligand Polar Desolv:            12.104748
########## Ligand Apolar Desolv:            -3.984291
##########      Internal Energy:             0.000000
##########      Receptor Energy: 0.0
########## Receptor Desolvation:             0.000000
########## Receptor Hydrophobic:             0.000000
##########         Total Energy: -48.54
##########        Ligand Charge:             1.000000
##########            Arbitrary:    +999.9990
##########     heavy atom count:   31
##########           pose count:   10
##########        Ligand Energy:             0.000000
# num electro vdwattr vdwrepu polsolv apolsol rdesolv rhydroe totalscore fullpol fullapo
#   1   -2.18   -2.92    1.01   -5.02    0.52    0.00    0.00      -8.60   -7.90    0.81
#   2    1.94   -2.11    0.36    2.20   -1.33    0.00    0.00       1.06    3.55   -2.15
#   3   -1.31   -1.66    0.37   -1.49   -0.25    0.00    0.00      -4.34   -2.65   -0.44
#   4    1.53   -1.79    0.42    0.65   -0.36    0.00    0.00       0.46    1.36   -0.75
#   5   -1.26   -2.20    0.88   -1.02    0.50    0.00    0.00      -3.11   -2.23    1.09
#   6   -0.25   -1.63    0.28   -1.69    0.42    0.00    0.00      -2.86   -3.90    0.98
#   7   -0.47   -1.31    0.34    0.71   -0.18    0.00    0.00      -0.91    1.73   -0.43
#   8    0.92   -0.60    0.04   -0.68   -0.05    0.00    0.00      -0.36   -2.08   -0.15
#   9    1.32   -0.65    0.10   -0.92   -0.06    0.00    0.00      -0.21   -3.41   -0.22
#  10    0.08   -0.53    0.06    0.21   -0.12    0.00    0.00      -0.31    0.81   -0.47
#  11   12.17   -1.84    1.66   -5.59    0.31    0.00    0.00       6.70  -16.28    0.89
#  12   -9.92   -0.02    0.00    4.08    0.14    0.00    0.00      -5.72   16.82    0.56
#  13  -16.94   -0.21    0.14    6.45    0.20    0.00    0.00     -10.36   18.01    0.57
#  14    0.09   -1.36    0.49    0.26   -0.19    0.00    0.00      -0.72    0.63   -0.47
#  15    1.53   -0.74    0.11   -1.39   -0.09    0.00    0.00      -0.58   -3.57   -0.22
#  16    0.52   -1.72    0.40    1.24   -1.03    0.00    0.00      -0.59    2.66   -2.20
#  17    0.29   -2.14    0.64   -2.15    1.02    0.00    0.00      -2.35   -4.42    2.09
#  18    0.18   -4.17    3.32    1.54   -1.76    0.00    0.00      -0.89    2.77   -3.16
#  19   -3.39   -4.16    2.23   -2.56    1.32    0.00    0.00      -6.56   -4.04    2.08
#  20   -0.66   -2.16    0.72   -0.19   -0.21    0.00    0.00      -2.49   -0.35   -0.38
#  21   -0.81   -1.96    0.31   -0.20   -0.19    0.00    0.00      -2.85   -0.33   -0.31
#  22   -1.96   -2.38    0.65   -0.71   -0.24    0.00    0.00      -4.64   -1.16   -0.40
#  23   -0.22   -2.81    1.15    0.07   -0.30    0.00    0.00      -2.11    0.10   -0.46
#  24   -1.75   -2.82    1.87   -0.88   -0.29    0.00    0.00      -3.87   -1.39   -0.46
#  25    4.14   -2.64    1.11    0.53   -0.41    0.00    0.00       2.74    0.86   -0.66
#  26   -2.49   -2.11    0.60   -0.35    0.56    0.00    0.00      -3.79   -0.55    0.88
#  27    0.04   -1.38    0.39   -0.05   -0.17    0.00    0.00      -1.17   -0.08   -0.27
#  28   -1.49   -1.72    0.91   -0.48   -0.28    0.00    0.00      -3.07   -0.77   -0.44
#  29   -0.75   -1.54    0.35   -0.48   -0.28    0.00    0.00      -2.70   -0.75   -0.44
#  30   -4.73   -4.86    5.87   -0.94    1.59    0.00    0.00      -3.07   -1.54    2.61
#  31    2.74   -3.48    1.50    0.37   -0.44    0.00    0.00       0.69    0.62   -0.73
#  32   -1.18   -5.75    6.44   -0.49   -0.28    0.00    0.00      -1.27   -0.81   -0.46
#  33   -0.95   -4.40    6.33   -0.22   -0.25    0.00    0.00       0.52   -0.39   -0.45
#  34   -0.84   -0.08    0.00    2.99    0.38    0.00    0.00       2.45    4.68    0.59
#  35    2.13   -0.05    0.00    2.05    0.17    0.00    0.00       4.30    4.35    0.36
#  36   -0.33   -0.56    0.14    0.52   -0.12    0.00    0.00      -0.35    1.24   -0.28
#  37   -0.24   -0.77    0.67    0.73   -0.10    0.00    0.00       0.29    2.12   -0.28
#  38   -0.64   -0.15    0.01    0.15   -0.04    0.00    0.00      -0.68    0.98   -0.28
#  39   -0.85   -0.25    0.03    0.61   -0.06    0.00    0.00      -0.53    2.67   -0.28
#  40   -0.93   -0.38    0.34    0.06   -0.04    0.00    0.00      -0.97    0.33   -0.24
#  41   -1.45   -0.11    0.01    0.53   -0.03    0.00    0.00      -1.06    4.93   -0.28
#  42   -1.35   -0.15    0.01    0.55   -0.04    0.00    0.00      -0.98    3.55   -0.28
#  43   -3.44   -0.57    0.20    2.72   -0.13    0.00    0.00      -1.21    6.01   -0.28
#  44   -2.20   -0.68    0.75    1.45   -0.11    0.00    0.00      -0.78    3.87   -0.28
#  45   -0.88   -0.41    0.31    0.50   -0.07    0.00    0.00      -0.55    1.94   -0.28
#  46   -1.07   -0.19    0.01    0.71   -0.06    0.00    0.00      -0.60    3.34   -0.28
#  47   -0.89   -2.01    6.89    1.43   -0.15    0.00    0.00       5.27    2.72   -0.28
#  48    1.26   -0.41    0.07    0.99   -0.11    0.00    0.00       1.81    2.18   -0.24
#  49    0.59   -0.57    0.13    1.90   -0.16    0.00    0.00       1.89    3.27   -0.28
#  50    1.17   -0.53    0.13    0.78   -0.14    0.00    0.00       1.41    1.53   -0.28
#  51    1.06   -0.47    0.14    0.13   -0.10    0.00    0.00       0.74    0.28   -0.23
#  52    1.37   -0.76    0.37    0.21   -0.14    0.00    0.00       1.05    0.42   -0.28
#  53    0.80   -0.54    0.40    0.35   -0.12    0.00    0.00       0.89    0.81   -0.28
#  54    0.37   -0.52    0.35    0.41   -0.15    0.00    0.00       0.46    0.78   -0.28
#  55    0.18   -0.87    0.66    0.22   -0.16    0.00    0.00       0.03    0.40   -0.28
#  56   -0.06   -2.45    6.47    0.60   -0.19    0.00    0.00       4.36    0.87   -0.28
#  57    0.89   -0.85    0.93    0.69   -0.13    0.00    0.00       1.52    1.47   -0.28

@<TRIPOS>MOLECULE
             1551        86
   57    62     0     0     0



@<TRIPOS>ATOM
      1 N1         19.5016    12.8161    63.7142 N.pl3      1          -0.8257
      2 C1         20.8133    13.2490    63.6874 C.ar       1           0.5218
      3 C2         21.1185    14.6197    63.6522 C.ar       1          -0.3266
      4 C3         20.3336    15.8540    63.6341 C.2        1           0.1875
      5 N2         21.1804    16.8560    63.6002 N.2        1          -0.2434
      6 N3         22.4921    16.3698    63.5944 N.pl3      1          -0.3870
      7 C4         23.7009    17.1970    63.5599 C.3        1           0.1486
      8 C5         24.1030    17.4517    62.1059 C.3        1          -0.1198
      9 C6         25.0115    18.6824    62.0338 C.3        1          -0.1427
     10 C7         25.3450    18.9785    60.5701 C.3        1          -0.0058
     11 N4         24.1070    19.2381    59.8252 N.4        1          -0.5054
     12 H1         23.6085    20.0005    60.2590 H          1           0.4284
     13 H2         24.3337    19.4841    58.8733 H          1           0.4324
     14 C8         23.2622    18.0377    59.8294 C.3        1          -0.0046
     15 C9         22.8487    17.7055    61.2647 C.3        1          -0.1407
     16 C10        22.4711    15.0072    63.6259 C.ar       1           0.3785
     17 N5         23.4076    14.0588    63.6357 N.ar       1          -0.5786
     18 C11        23.0747    12.7873    63.6696 C.ar       1           0.3938
     19 N6         21.8183    12.3790    63.6999 N.ar       1          -0.5987
     20 C12        18.8550    15.9544    63.6502 C.ar       1          -0.0446
     21 C13        18.1417    15.4303    64.7142 C.ar       1          -0.0625
     22 C14        16.7439    15.5293    64.7219 C.ar       1          -0.1368
     23 C15        15.9814    15.0084    65.7880 C.ar       1          -0.0223
     24 C16        14.6256    15.1374    65.7353 C.ar       1          -0.1713
     25 C17        14.0277    15.7744    64.6409 C.ar       1           0.3714
     26 O1         12.6780    15.8956    64.6027 O.3        1          -0.2711
     27 C18        11.9174    14.6859    64.6205 C.3        1           0.0055
     28 C19        11.7476    13.9387    63.2962 C.3        1          -0.1774
     29 C20        10.5640    14.6920    63.9066 C.3        1          -0.1725
     30 N7         14.7436    16.2586    63.6492 N.ar       1          -0.5413
     31 C21        16.0781    16.1629    63.6433 C.ar       1           0.1865
     32 C22        16.8325    16.6845    62.5773 C.ar       1          -0.0955
     33 C23        18.1871    16.5854    62.5888 C.ar       1          -0.0637
     34 H3         19.3048    11.8668    63.7445 H          1           0.4145
     35 H4         18.7777    13.4615    63.7067 H          1           0.4146
     36 H5         23.5045    18.1482    64.0546 H          1           0.1082
     37 H6         24.5100    16.6795    64.0752 H          1           0.1016
     38 H7         24.6331    16.5826    61.7165 H          1           0.0961
     39 H8         24.4989    19.5394    62.4709 H          1           0.0936
     40 H9         25.9318    18.4881    62.5846 H          1           0.1122
     41 H10        25.9919    19.8540    60.5151 H          1           0.1343
     42 H11        25.8578    18.1210    60.1340 H          1           0.1286
     43 H12        22.3716    18.2189    59.2278 H          1           0.1369
     44 H13        23.8194    17.2004    59.4092 H          1           0.1309
     45 H14        22.2229    16.8129    61.2658 H          1           0.1184
     46 H15        22.2911    18.5422    61.6857 H          1           0.0941
     47 H16        23.8604    12.0463    63.6766 H          1           0.2078
     48 H17        18.6580    14.9488    65.5316 H          1           0.1386
     49 H18        16.4593    14.5197    66.6242 H          1           0.1524
     50 H19        14.0136    14.7487    66.5358 H          1           0.1520
     51 H20        12.0048    14.0889    65.5281 H          1           0.1420
     52 H21        12.2163    14.3696    62.4115 H          1           0.1040
     53 H22        11.7236    12.8496    63.3325 H          1           0.1082
     54 H23         9.7614    14.0984    64.3444 H          1           0.1095
     55 H24        10.2540    15.6185    63.4234 H          1           0.1049
     56 H25        16.3342    17.1694    61.7506 H          1           0.1439
     57 H26        18.7581    16.9935    61.7677 H          1           0.1362
@<TRIPOS>BOND
     1    1    2 1
     2    1   34 1
     3    1   35 1
     4    2   19 ar
     5    2    3 ar
     6    3   16 ar
     7    3    4 1
     8    4    5 2
     9    4   20 1
    10    5    6 1
    11    6    7 1
    12    6   16 1
    13    7    8 1
    14    7   36 1
    15    7   37 1
    16    8   15 1
    17    8    9 1
    18    8   38 1
    19    9   10 1
    20    9   39 1
    21    9   40 1
    22   10   11 1
    23   10   41 1
    24   10   42 1
    25   11   12 1
    26   11   13 1
    27   11   14 1
    28   14   15 1
    29   14   43 1
    30   14   44 1
    31   15   45 1
    32   15   46 1
    33   16   17 ar
    34   17   18 ar
    35   18   19 ar
    36   18   47 1
    37   20   33 ar
    38   20   21 ar
    39   21   22 ar
    40   21   48 1
    41   22   31 ar
    42   22   23 ar
    43   23   24 ar
    44   23   49 1
    45   24   25 ar
    46   24   50 1
    47   25   26 1
    48   25   30 ar
    49   26   27 1
    50   27   29 1
    51   27   28 1
    52   27   51 1
    53   28   29 1
    54   28   52 1
    55   28   53 1
    56   29   54 1
    57   29   55 1
    58   30   31 ar
    59   31   32 ar
    60   32   33 ar
    61   32   56 1
    62   33   57 1
##########                 Name:                 1551
##########          Protonation:                   86
##########               SMILES:   c1cc(nc2c1cc(cc2)c3c4c(ncnc4n(n3)CC5CC[NH2+]CC5)N)OC6CC6
##########            Long Name:   )-6-quinolyl]-1-(piperidin-1-ium-4-ylmethyl)pyrazolo[3,4-d]pyrimidin-4-amine
##########          FlexRecCode: 1
##########               Number:                   21
##########   Ligand Source File: /raid1/people/rgc/Examples/tdt/part3/ligand22set/build/ligand22set-0000001.db2.g
##########           GlobalRank: 6
##########                 Rank:                    3
##########               Setnum:                  143
##########             Matchnum:                 2689
##########                Cloud:                    1
##########        Electrostatic:           -33.554646
##########        Van der Waals:           -23.369240
##########  Ligand Polar Desolv:            12.530004
########## Ligand Apolar Desolv:            -3.854406
##########      Internal Energy:             0.000000
##########      Receptor Energy: 0.0
########## Receptor Desolvation:             0.000000
########## Receptor Hydrophobic:             0.000000
##########         Total Energy: -48.25
##########        Ligand Charge:             1.000000
##########            Arbitrary:    +999.9990
##########     heavy atom count:   31
##########           pose count:   10
##########        Ligand Energy:             0.000000
# num electro vdwattr vdwrepu polsolv apolsol rdesolv rhydroe totalscore fullpol fullapo
#   1   -2.74   -2.39    0.49   -4.98    0.51    0.00    0.00      -9.10   -7.90    0.81
#   2    1.91   -1.94    0.36    2.14   -1.30    0.00    0.00       1.18    3.55   -2.15
#   3   -1.28   -1.65    0.39   -1.36   -0.23    0.00    0.00      -4.13   -2.65   -0.44
#   4    1.65   -1.98    0.63    0.65   -0.36    0.00    0.00       0.58    1.36   -0.75
#   5   -1.22   -2.54    1.40   -1.04    0.51    0.00    0.00      -2.89   -2.23    1.09
#   6   -0.01   -1.65    0.27   -1.71    0.43    0.00    0.00      -2.66   -3.90    0.98
#   7   -0.62   -1.35    0.33    0.72   -0.18    0.00    0.00      -1.09    1.73   -0.43
#   8    1.06   -0.59    0.04   -0.70   -0.05    0.00    0.00      -0.25   -2.08   -0.15
#   9    1.41   -0.64    0.07   -0.95   -0.06    0.00    0.00      -0.18   -3.41   -0.22
#  10    0.09   -0.60    0.10    0.22   -0.13    0.00    0.00      -0.32    0.81   -0.47
#  11   13.46   -2.17    2.77   -5.87    0.32    0.00    0.00       8.52  -16.28    0.89
#  12  -10.50   -0.02    0.00    4.87    0.16    0.00    0.00      -5.49   16.82    0.56
#  13  -19.43   -0.33    0.40    6.59    0.21    0.00    0.00     -12.56   18.01    0.57
#  14    0.10   -1.31    0.37    0.26   -0.20    0.00    0.00      -0.76    0.63   -0.47
#  15    1.76   -0.68    0.05   -1.43   -0.09    0.00    0.00      -0.39   -3.57   -0.22
#  16    0.38   -1.66    0.35    1.18   -0.98    0.00    0.00      -0.72    2.66   -2.20
#  17    0.38   -1.91    0.50   -2.04    0.97    0.00    0.00      -2.11   -4.42    2.09
#  18   -0.33   -3.09    1.65    1.45   -1.66    0.00    0.00      -1.98    2.77   -3.16
#  19   -2.29   -3.19    1.03   -2.45    1.26    0.00    0.00      -5.65   -4.04    2.08
#  20   -0.75   -2.46    1.36   -0.19   -0.20    0.00    0.00      -2.25   -0.35   -0.38
#  21   -0.86   -2.02    0.35   -0.20   -0.19    0.00    0.00      -2.91   -0.33   -0.31
#  22   -2.02   -2.32    0.56   -0.71   -0.24    0.00    0.00      -4.74   -1.16   -0.40
#  23   -0.22   -2.73    0.93    0.07   -0.30    0.00    0.00      -2.25    0.10   -0.46
#  24   -1.69   -2.91    1.95   -0.88   -0.29    0.00    0.00      -3.81   -1.39   -0.46
#  25    4.18   -2.65    1.35    0.53   -0.41    0.00    0.00       3.00    0.86   -0.66
#  26   -2.53   -1.91    0.41   -0.35    0.55    0.00    0.00      -3.81   -0.55    0.88
#  27    0.04   -1.55    0.80   -0.05   -0.17    0.00    0.00      -0.93   -0.08   -0.27
#  28   -1.54   -2.07    2.54   -0.47   -0.27    0.00    0.00      -1.81   -0.77   -0.44
#  29   -0.87   -1.35    0.21   -0.48   -0.28    0.00    0.00      -2.77   -0.75   -0.44
#  30   -5.20   -4.37    3.90   -0.93    1.58    0.00    0.00      -5.02   -1.54    2.61
#  31    2.84   -3.40    1.41    0.37   -0.44    0.00    0.00       0.79    0.62   -0.73
#  32   -1.24   -5.74    6.14   -0.49   -0.28    0.00    0.00      -1.61   -0.81   -0.46
#  33   -1.03   -5.12   11.91   -0.22   -0.25    0.00    0.00       5.29   -0.39   -0.45
#  34   -0.02   -0.06    0.00    2.89    0.36    0.00    0.00       3.18    4.68    0.59
#  35    2.24   -0.03    0.00    1.96    0.16    0.00    0.00       4.33    4.35    0.36
#  36   -0.40   -0.61    0.17    0.55   -0.12    0.00    0.00      -0.43    1.24   -0.28
#  37   -0.42   -0.88    0.90    0.76   -0.10    0.00    0.00       0.26    2.12   -0.28
#  38   -0.76   -0.14    0.01    0.13   -0.04    0.00    0.00      -0.80    0.98   -0.28
#  39   -0.94   -0.29    0.05    0.63   -0.07    0.00    0.00      -0.62    2.67   -0.28
#  40   -0.83   -0.30    0.13    0.06   -0.04    0.00    0.00      -0.98    0.33   -0.24
#  41   -1.58   -0.13    0.01    0.54   -0.03    0.00    0.00      -1.19    4.93   -0.28
#  42   -1.68   -0.17    0.02    0.55   -0.04    0.00    0.00      -1.33    3.55   -0.28
#  43   -3.74   -0.57    0.18    2.66   -0.12    0.00    0.00      -1.59    6.01   -0.28
#  44   -2.66   -0.55    0.30    1.43   -0.10    0.00    0.00      -1.59    3.87   -0.28
#  45   -1.04   -0.29    0.09    0.48   -0.07    0.00    0.00      -0.83    1.94   -0.28
#  46   -1.22   -0.21    0.01    0.78   -0.07    0.00    0.00      -0.70    3.34   -0.28
#  47   -1.15   -1.20    2.64    1.25   -0.13    0.00    0.00       1.41    2.72   -0.28
#  48    1.36   -0.44    0.11    0.97   -0.11    0.00    0.00       1.90    2.18   -0.24
#  49    0.62   -0.56    0.11    1.93   -0.17    0.00    0.00       1.93    3.27   -0.28
#  50    1.07   -0.56    0.15    0.80   -0.15    0.00    0.00       1.31    1.53   -0.28
#  51    1.06   -0.59    0.28    0.13   -0.11    0.00    0.00       0.77    0.28   -0.23
#  52    1.36   -0.72    0.37    0.21   -0.14    0.00    0.00       1.08    0.42   -0.28
#  53    0.82   -0.80    1.44    0.37   -0.13    0.00    0.00       1.70    0.81   -0.28
#  54    0.46   -0.48    0.24    0.41   -0.15    0.00    0.00       0.49    0.78   -0.28
#  55    0.26   -0.65    0.29    0.21   -0.15    0.00    0.00      -0.03    0.40   -0.28
#  56   -0.14   -2.48    6.56    0.60   -0.19    0.00    0.00       4.35    0.87   -0.28
#  57    0.89   -0.96    1.48    0.68   -0.13    0.00    0.00       1.96    1.47   -0.28

@<TRIPOS>MOLECULE
             1551        86
   57    62     0     0     0



@<TRIPOS>ATOM
      1 N1         19.7492    13.0635    63.7095 N.pl3      1          -0.8257
      2 C1         21.0308    13.5777    63.6671 C.ar       1           0.5218
      3 C2         21.2492    14.9650    63.6336 C.ar       1          -0.3266
      4 C3         20.3885    16.1478    63.6312 C.2        1           0.1875
      5 N2         21.1705    17.2009    63.5903 N.2        1          -0.2434
      6 N3         22.5098    16.7978    63.5650 N.pl3      1          -0.3870
      7 C4         23.6640    17.6990    63.5179 C.3        1           0.1486
      8 C5         24.0296    17.9834    62.0598 C.3        1          -0.1198
      9 C6         24.8584    19.2687    61.9809 C.3        1          -0.1427
     10 C7         25.1529    19.5901    60.5141 C.3        1          -0.0058
     11 N4         23.8911    19.7743    59.7869 N.4        1          -0.5054
     12 H1         23.3519    20.5025    60.2305 H          1           0.4284
     13 H2         24.0891    20.0372    58.8331 H          1           0.4324
     14 C8         23.1232    18.5234    59.7972 C.3        1          -0.0046
     15 C9         22.7506    18.1610    61.2364 C.3        1          -0.1407
     16 C10        22.5744    15.4364    63.5910 C.ar       1           0.3785
     17 N5         23.5685    14.5484    63.5844 N.ar       1          -0.5786
     18 C11        23.3162    13.2585    63.6172 C.ar       1           0.3938
     19 N6         22.0883    12.7722    63.6625 N.ar       1          -0.5987
     20 C12        18.9069    16.1554    63.6673 C.ar       1          -0.0446
     21 C13        18.2421    15.5842    64.7385 C.ar       1          -0.0625
     22 C14        16.8412    15.5955    64.7652 C.ar       1          -0.1368
     23 C15        16.1271    15.0243    65.8391 C.ar       1          -0.0223
     24 C16        14.7654    15.0684    65.8049 C.ar       1          -0.1713
     25 C17        14.1141    15.6705    64.7213 C.ar       1           0.3714
     26 O1         12.7590    15.7071    64.7016 O.3        1          -0.2711
     27 C18        12.0758    14.4522    64.7243 C.3        1           0.0055
     28 C19        11.9352    13.7002    63.3992 C.3        1          -0.1774
     29 C20        10.7152    14.3759    64.0285 C.3        1          -0.1725
     30 N7         14.7848    16.2018    63.7223 N.ar       1          -0.5413
     31 C21        16.1226    16.1898    63.6982 C.ar       1           0.1865
     32 C22        16.8283    16.7613    62.6245 C.ar       1          -0.0955
     33 C23        18.1866    16.7471    62.6176 C.ar       1          -0.0637
     34 H3         19.6125    12.1037    63.7383 H          1           0.4145
     35 H4         18.9863    13.6624    63.7143 H          1           0.4146
     36 H5         23.4152    18.6344    64.0192 H          1           0.1082
     37 H6         24.5107    17.2315    64.0203 H          1           0.1016
     38 H7         24.6078    17.1504    61.6598 H          1           0.0961
     39 H8         24.2992    20.0905    62.4284 H          1           0.0936
     40 H9         25.7964    19.1305    62.5186 H          1           0.1122
     41 H10        25.7430    20.5046    60.4543 H          1           0.1343
     42 H11        25.7124    18.7679    60.0677 H          1           0.1286
     43 H12        22.2149    18.6505    59.2082 H          1           0.1369
     44 H13        23.7259    17.7240    59.3661 H          1           0.1309
     45 H14        22.1820    17.2311    61.2421 H          1           0.1184
     46 H15        22.1477    18.9598    61.6683 H          1           0.0941
     47 H16        24.1466    12.5680    63.6107 H          1           0.2078
     48 H17        18.7986    15.1331    65.5469 H          1           0.1386
     49 H18        16.6460    14.5636    66.6668 H          1           0.1524
     50 H19        14.1898    14.6395    66.6118 H          1           0.1520
     51 H20        12.2127    13.8587    65.6281 H          1           0.1420
     52 H21        12.3640    14.1626    62.5102 H          1           0.1040
     53 H22        11.9799    12.6117    63.4312 H          1           0.1082
     54 H23         9.9573    13.7318    64.4744 H          1           0.1095
     55 H24        10.3413    15.2829    63.5534 H          1           0.1049
     56 H25        16.2896    17.2168    61.8066 H          1           0.1439
     57 H26        18.7198    17.1928    61.7907 H          1           0.1362
@<TRIPOS>BOND
     1    1    2 1
     2    1   34 1
     3    1   35 1
     4    2   19 ar
     5    2    3 ar
     6    3   16 ar
     7    3    4 1
     8    4    5 2
     9    4   20 1
    10    5    6 1
    11    6    7 1
    12    6   16 1
    13    7    8 1
    14    7   36 1
    15    7   37 1
    16    8   15 1
    17    8    9 1
    18    8   38 1
    19    9   10 1
    20    9   39 1
    21    9   40 1
    22   10   11 1
    23   10   41 1
    24   10   42 1
    25   11   12 1
    26   11   13 1
    27   11   14 1
    28   14   15 1
    29   14   43 1
    30   14   44 1
    31   15   45 1
    32   15   46 1
    33   16   17 ar
    34   17   18 ar
    35   18   19 ar
    36   18   47 1
    37   20   33 ar
    38   20   21 ar
    39   21   22 ar
    40   21   48 1
    41   22   31 ar
    42   22   23 ar
    43   23   24 ar
    44   23   49 1
    45   24   25 ar
    46   24   50 1
    47   25   26 1
    48   25   30 ar
    49   26   27 1
    50   27   29 1
    51   27   28 1
    52   27   51 1
    53   28   29 1
    54   28   52 1
    55   28   53 1
    56   29   54 1
    57   29   55 1
    58   30   31 ar
    59   31   32 ar
    60   32   33 ar
    61   32   56 1
    62   33   57 1
##########                 Name:                 1551
##########          Protonation:                   86
##########               SMILES:   c1cc(nc2c1cc(cc2)c3c4c(ncnc4n(n3)CC5CC[NH2+]CC5)N)OC6CC6
##########            Long Name:   )-6-quinolyl]-1-(piperidin-1-ium-4-ylmethyl)pyrazolo[3,4-d]pyrimidin-4-amine
##########          FlexRecCode: 1
##########               Number:                   25
##########   Ligand Source File: /raid1/people/rgc/Examples/tdt/part3/ligand22set/build/ligand22set-0000001.db2.g
##########           GlobalRank: 6
##########                 Rank:                    3
##########               Setnum:                  240
##########             Matchnum:                  228
##########                Cloud:                    1
##########        Electrostatic:           -32.802574
##########        Van der Waals:           -25.112980
##########  Ligand Polar Desolv:            14.182600
########## Ligand Apolar Desolv:            -4.396953
##########      Internal Energy:             0.000000
##########      Receptor Energy: 0.0
########## Receptor Desolvation:             0.000000
########## Receptor Hydrophobic:             0.000000
##########         Total Energy: -48.13
##########        Ligand Charge:             1.000000
##########            Arbitrary:    +999.9990
##########     heavy atom count:   31
##########           pose count:   10
##########        Ligand Energy:             0.000000
# num electro vdwattr vdwrepu polsolv apolsol rdesolv rhydroe totalscore fullpol fullapo
#   1    0.54   -4.88    3.97   -5.15    0.53    0.00    0.00      -4.98   -7.90    0.81
#   2    1.96   -2.95    1.08    2.29   -1.39    0.00    0.00       0.99    3.55   -2.15
#   3   -1.42   -1.76    0.30   -1.56   -0.26    0.00    0.00      -4.70   -2.65   -0.44
#   4    1.51   -1.69    0.32    0.71   -0.39    0.00    0.00       0.46    1.36   -0.75
#   5   -1.64   -1.89    0.50   -1.02    0.50    0.00    0.00      -3.55   -2.23    1.09
#   6   -0.46   -1.49    0.26   -1.67    0.42    0.00    0.00      -2.94   -3.90    0.98
#   7   -0.49   -0.79    0.08    0.68   -0.17    0.00    0.00      -0.70    1.73   -0.43
#   8    1.02   -0.68    0.06   -0.85   -0.06    0.00    0.00      -0.50   -2.08   -0.15
#   9    1.86   -0.57    0.04   -1.11   -0.07    0.00    0.00       0.14   -3.41   -0.22
#  10    0.14   -1.21    0.48    0.31   -0.18    0.00    0.00      -0.46    0.81   -0.47
#  11   11.79   -1.38    0.29   -6.53    0.36    0.00    0.00       4.54  -16.28    0.89
#  12   -8.37   -0.02    0.00    4.36    0.15    0.00    0.00      -3.88   16.82    0.56
#  13  -12.95   -0.05    0.00    6.71    0.21    0.00    0.00      -6.07   18.01    0.57
#  14    0.08   -1.22    0.25    0.30   -0.22    0.00    0.00      -0.81    0.63   -0.47
#  15    1.26   -1.08    0.18   -1.55   -0.10    0.00    0.00      -1.28   -3.57   -0.22
#  16    0.66   -1.77    0.46    1.30   -1.08    0.00    0.00      -0.42    2.66   -2.20
#  17    0.37   -2.33    0.66   -2.25    1.06    0.00    0.00      -2.49   -4.42    2.09
#  18    0.91   -5.81    7.23    1.60   -1.83    0.00    0.00       2.11    2.77   -3.16
#  19   -4.70   -6.65    7.78   -2.63    1.35    0.00    0.00      -4.84   -4.04    2.08
#  20   -0.53   -1.83    0.28   -0.20   -0.22    0.00    0.00      -2.50   -0.35   -0.38
#  21   -0.59   -2.24    0.42   -0.20   -0.19    0.00    0.00      -2.79   -0.33   -0.31
#  22   -1.29   -2.55    0.66   -0.75   -0.26    0.00    0.00      -4.19   -1.16   -0.40
#  23   -0.07   -3.75    1.25    0.07   -0.31    0.00    0.00      -2.81    0.10   -0.46
#  24   -0.71   -4.09    1.67   -0.90   -0.30    0.00    0.00      -4.33   -1.39   -0.46
#  25    3.38   -2.66    0.87    0.56   -0.43    0.00    0.00       1.72    0.86   -0.66
#  26   -2.38   -2.44    0.84   -0.36    0.58    0.00    0.00      -3.76   -0.55    0.88
#  27    0.05   -1.58    0.46   -0.05   -0.18    0.00    0.00      -1.31   -0.08   -0.27
#  28   -1.06   -1.36    0.26   -0.49   -0.28    0.00    0.00      -2.93   -0.77   -0.44
#  29   -1.42   -1.47    0.47   -0.47   -0.28    0.00    0.00      -3.17   -0.75   -0.44
#  30   -6.28   -2.71    1.66   -0.96    1.62    0.00    0.00      -6.67   -1.54    2.61
#  31    2.45   -2.83    1.56    0.38   -0.45    0.00    0.00       1.12    0.62   -0.73
#  32   -1.31   -3.25    1.20   -0.48   -0.27    0.00    0.00      -4.11   -0.81   -0.46
#  33   -0.90   -2.75    0.97   -0.23   -0.26    0.00    0.00      -3.17   -0.39   -0.45
#  34   -4.74   -0.27    0.17    3.11    0.39    0.00    0.00      -1.33    4.68    0.59
#  35    0.88   -0.06    0.00    2.29    0.19    0.00    0.00       3.30    4.35    0.36
#  36   -0.28   -0.39    0.07    0.42   -0.09    0.00    0.00      -0.27    1.24   -0.28
#  37   -0.44   -0.19    0.01    0.41   -0.05    0.00    0.00      -0.26    2.12   -0.28
#  38   -0.86   -0.35    0.16    0.27   -0.08    0.00    0.00      -0.85    0.98   -0.28
#  39   -1.00   -0.14    0.01    0.33   -0.03    0.00    0.00      -0.83    2.67   -0.28
#  40   -1.29   -0.19    0.02    0.07   -0.05    0.00    0.00      -1.44    0.33   -0.24
#  41   -3.97   -0.83    1.94    1.38   -0.08    0.00    0.00      -1.56    4.93   -0.28
#  42   -3.53   -0.54    0.19    1.47   -0.12    0.00    0.00      -2.53    3.55   -0.28
#  43   -2.48   -0.83    0.81    2.66   -0.12    0.00    0.00       0.04    6.01   -0.28
#  44   -2.46   -0.31    0.03    1.46   -0.11    0.00    0.00      -1.38    3.87   -0.28
#  45   -0.27   -0.57    0.50    0.70   -0.10    0.00    0.00       0.26    1.94   -0.28
#  46   -0.80   -0.45    0.09    1.30   -0.11    0.00    0.00       0.03    3.34   -0.28
#  47   -0.63   -2.79   11.13    1.53   -0.16    0.00    0.00       9.08    2.72   -0.28
#  48    0.96   -0.65    0.34    1.14   -0.13    0.00    0.00       1.67    2.18   -0.24
#  49   -0.23   -1.05    0.39    2.12   -0.18    0.00    0.00       1.06    3.27   -0.28
#  50   -0.05   -1.93    4.45    1.01   -0.18    0.00    0.00       3.29    1.53   -0.28
#  51    1.30   -1.03    1.59    0.15   -0.12    0.00    0.00       1.89    0.28   -0.23
#  52    0.63   -0.51    0.17    0.23   -0.15    0.00    0.00       0.37    0.42   -0.28
#  53    0.44   -0.49    0.15    0.43   -0.15    0.00    0.00       0.39    0.81   -0.28
#  54    1.00   -0.60    0.16    0.39   -0.14    0.00    0.00       0.81    0.78   -0.28
#  55    0.97   -1.17    5.32    0.17   -0.12    0.00    0.00       5.16    0.40   -0.28
#  56    1.18   -1.08    0.83    0.52   -0.17    0.00    0.00       1.29    0.87   -0.28
#  57    1.46   -0.82    0.76    0.74   -0.14    0.00    0.00       2.00    1.47   -0.28

@<TRIPOS>MOLECULE
             1551        86
   57    62     0     0     0



@<TRIPOS>ATOM
      1 N1         19.4959    12.2679    64.6021 N.pl3      1          -0.8257
      2 C1         20.7352    12.7511    64.2289 C.ar       1           0.5218
      3 C2         20.9181    14.1122    63.9341 C.ar       1          -0.3266
      4 C3         20.0528    15.2915    63.9128 C.2        1           0.1875
      5 N2         20.7929    16.3138    63.5535 N.2        1          -0.2434
      6 N3         22.1084    15.8934    63.3308 N.pl3      1          -0.3870
      7 C4         23.2150    16.7597    62.9166 C.3        1           0.1486
      8 C5         22.7464    17.6814    61.7891 C.3        1          -0.1198
      9 C6         23.9622    18.2228    61.0313 C.3        1          -0.1427
     10 C7         23.4910    19.2052    59.9570 C.3        1          -0.0058
     11 N4         22.7707    20.3176    60.5881 N.4        1          -0.5054
     12 H1         23.3695    20.7623    61.2675 H          1           0.4284
     13 H2         22.5070    20.9893    59.8829 H          1           0.4324
     14 C8         21.5643    19.8148    61.2561 C.3        1          -0.0046
     15 C9         21.9615    18.8559    62.3805 C.3        1          -0.1407
     16 C10        22.2010    14.5526    63.5588 C.ar       1           0.3785
     17 N5         23.1902    13.6612    63.4986 N.ar       1          -0.5786
     18 C11        22.9721    12.3965    63.7841 C.ar       1           0.3938
     19 N6         21.7855    11.9406    64.1451 N.ar       1          -0.5987
     20 C12        18.6069    15.3252    64.2365 C.ar       1          -0.0446
     21 C13        18.1745    14.9404    65.4937 C.ar       1          -0.0625
     22 C14        16.8057    14.9751    65.7918 C.ar       1          -0.1368
     23 C15        16.3255    14.5915    67.0614 C.ar       1          -0.0223
     24 C16        14.9828    14.6485    67.2877 C.ar       1          -0.1713
     25 C17        14.1217    15.0799    66.2711 C.ar       1           0.3714
     26 O1         12.7885    15.1315    66.5114 O.3        1          -0.2711
     27 C18        11.9533    15.5785    65.4414 C.3        1           0.0055
     28 C19        10.7578    14.7012    65.0645 C.3        1          -0.1774
     29 C20        11.9766    14.7704    64.1423 C.3        1          -0.1725
     30 N7         14.5749    15.4365    65.0889 N.ar       1          -0.5413
     31 C21        15.8821    15.4024    64.8057 C.ar       1           0.1865
     32 C22        16.3542    15.7864    63.5380 C.ar       1          -0.0955
     33 C23        17.6850    15.7526    63.2678 C.ar       1          -0.0637
     34 H3         19.3845    11.3266    64.8088 H          1           0.4145
     35 H4         18.7381    12.8705    64.6613 H          1           0.4146
     36 H5         23.5429    17.3608    63.7648 H          1           0.1082
     37 H6         24.0441    16.1464    62.5638 H          1           0.1016
     38 H7         22.1074    17.1240    61.1042 H          1           0.0961
     39 H8         24.6260    18.7356    61.7275 H          1           0.0936
     40 H9         24.4951    17.3967    60.5607 H          1           0.1122
     41 H10        24.3540    19.5923    59.4156 H          1           0.1343
     42 H11        22.8273    18.6914    59.2614 H          1           0.1286
     43 H12        21.0051    20.6520    61.6737 H          1           0.1369
     44 H13        20.9418    19.2879    60.5328 H          1           0.1309
     45 H14        21.0643    18.4823    62.8741 H          1           0.1184
     46 H15        22.5837    19.3819    63.1046 H          1           0.0941
     47 H16        23.7973    11.7024    63.7245 H          1           0.2078
     48 H17        18.8860    14.6158    66.2386 H          1           0.1386
     49 H18        17.0041    14.2610    67.8338 H          1           0.1524
     50 H19        14.5835    14.3611    68.2492 H          1           0.1520
     51 H20        11.8309    16.6584    65.3601 H          1           0.1420
     52 H21        10.6083    13.7832    65.6329 H          1           0.1040
     53 H22         9.8485    15.2039    64.7355 H          1           0.1082
     54 H23        11.8691    15.3190    63.2065 H          1           0.1095
     55 H24        12.6288    13.8981    64.1037 H          1           0.1049
     56 H25        15.6581    16.1136    62.7798 H          1           0.1439
     57 H26        18.0384    16.0540    62.2927 H          1           0.1362
@<TRIPOS>BOND
     1    1    2 1
     2    1   34 1
     3    1   35 1
     4    2   19 ar
     5    2    3 ar
     6    3   16 ar
     7    3    4 1
     8    4    5 2
     9    4   20 1
    10    5    6 1
    11    6    7 1
    12    6   16 1
    13    7    8 1
    14    7   36 1
    15    7   37 1
    16    8   15 1
    17    8    9 1
    18    8   38 1
    19    9   10 1
    20    9   39 1
    21    9   40 1
    22   10   11 1
    23   10   41 1
    24   10   42 1
    25   11   12 1
    26   11   13 1
    27   11   14 1
    28   14   15 1
    29   14   43 1
    30   14   44 1
    31   15   45 1
    32   15   46 1
    33   16   17 ar
    34   17   18 ar
    35   18   19 ar
    36   18   47 1
    37   20   33 ar
    38   20   21 ar
    39   21   22 ar
    40   21   48 1
    41   22   31 ar
    42   22   23 ar
    43   23   24 ar
    44   23   49 1
    45   24   25 ar
    46   24   50 1
    47   25   26 1
    48   25   30 ar
    49   26   27 1
    50   27   29 1
    51   27   28 1
    52   27   51 1
    53   28   29 1
    54   28   52 1
    55   28   53 1
    56   29   54 1
    57   29   55 1
    58   30   31 ar
    59   31   32 ar
    60   32   33 ar
    61   32   56 1
    62   33   57 1
##########                 Name:                 1551
##########          Protonation:                   86
##########               SMILES:   c1cc(nc2c1cc(cc2)c3c4c(ncnc4n(n3)CC5CC[NH2+]CC5)N)OC6CC6
##########            Long Name:   )-6-quinolyl]-1-(piperidin-1-ium-4-ylmethyl)pyrazolo[3,4-d]pyrimidin-4-amine
##########          FlexRecCode: 1
##########               Number:                   19
##########   Ligand Source File: /raid1/people/rgc/Examples/tdt/part3/ligand22set/build/ligand22set-0000001.db2.g
##########           GlobalRank: 6
##########                 Rank:                    3
##########               Setnum:                   55
##########             Matchnum:                65998
##########                Cloud:                    1
##########        Electrostatic:           -37.252228
##########        Van der Waals:           -21.814035
##########  Ligand Polar Desolv:            15.594133
########## Ligand Apolar Desolv:            -4.397397
##########      Internal Energy:             0.000000
##########      Receptor Energy: 0.0
########## Receptor Desolvation:             0.000000
########## Receptor Hydrophobic:             0.000000
##########         Total Energy: -47.87
##########        Ligand Charge:             1.000000
##########            Arbitrary:    +999.9990
##########     heavy atom count:   31
##########           pose count:   10
##########        Ligand Energy:             0.000000
# num electro vdwattr vdwrepu polsolv apolsol rdesolv rhydroe totalscore fullpol fullapo
#   1    1.10   -5.28    5.09   -5.14    0.53    0.00    0.00      -3.70   -7.90    0.81
#   2    1.75   -2.82    0.85    2.29   -1.39    0.00    0.00       0.68    3.55   -2.15
#   3   -1.53   -1.72    0.27   -1.57   -0.26    0.00    0.00      -4.81   -2.65   -0.44
#   4    1.68   -1.68    0.28    0.73   -0.40    0.00    0.00       0.61    1.36   -0.75
#   5   -2.25   -2.15    0.76   -1.05    0.51    0.00    0.00      -4.18   -2.23    1.09
#   6   -0.95   -1.58    0.29   -1.69    0.42    0.00    0.00      -3.50   -3.90    0.98
#   7   -0.33   -0.87    0.09    0.72   -0.18    0.00    0.00      -0.57    1.73   -0.43
#   8    0.90   -0.72    0.05   -0.89   -0.06    0.00    0.00      -0.71   -2.08   -0.15
#   9    1.65   -1.46    1.02   -1.39   -0.09    0.00    0.00      -0.26   -3.41   -0.22
#  10    0.13   -1.71    0.63    0.39   -0.23    0.00    0.00      -0.79    0.81   -0.47
#  11   13.83   -2.10    1.26   -6.99    0.38    0.00    0.00       6.38  -16.28    0.89
#  12  -11.43   -0.04    0.00    5.07    0.17    0.00    0.00      -6.23   16.82    0.56
#  13  -15.79   -0.10    0.01    7.93    0.25    0.00    0.00      -7.69   18.01    0.57
#  14    0.09   -0.94    0.14    0.25   -0.19    0.00    0.00      -0.64    0.63   -0.47
#  15    1.66   -0.77    0.07   -1.40   -0.09    0.00    0.00      -0.53   -3.57   -0.22
#  16    0.92   -1.73    0.43    1.33   -1.10    0.00    0.00      -0.15    2.66   -2.20
#  17   -0.09   -2.14    0.52   -2.26    1.07    0.00    0.00      -2.91   -4.42    2.09
#  18    1.12   -4.89    4.33    1.61   -1.84    0.00    0.00       0.34    2.77   -3.16
#  19   -4.31   -5.83    5.43   -2.65    1.36    0.00    0.00      -6.00   -4.04    2.08
#  20   -0.53   -1.91    0.34   -0.21   -0.23    0.00    0.00      -2.54   -0.35   -0.38
#  21   -0.54   -2.35    0.55   -0.20   -0.19    0.00    0.00      -2.74   -0.33   -0.31
#  22   -1.12   -3.12    1.63   -0.75   -0.26    0.00    0.00      -3.61   -1.16   -0.40
#  23   -0.02   -4.35    2.62    0.07   -0.30    0.00    0.00      -2.00    0.10   -0.46
#  24   -0.59   -4.81    3.68   -0.90   -0.30    0.00    0.00      -2.92   -1.39   -0.46
#  25    3.05   -3.17    2.14    0.55   -0.42    0.00    0.00       2.14    0.86   -0.66
#  26   -2.15   -2.49    0.84   -0.35    0.56    0.00    0.00      -3.60   -0.55    0.88
#  27    0.04   -1.42    0.31   -0.05   -0.17    0.00    0.00      -1.29   -0.08   -0.27
#  28   -0.91   -1.57    0.48   -0.48   -0.27    0.00    0.00      -2.76   -0.77   -0.44
#  29   -1.08   -1.27    0.20   -0.49   -0.29    0.00    0.00      -2.92   -0.75   -0.44
#  30   -5.70   -3.54    5.76   -0.95    1.61    0.00    0.00      -2.81   -1.54    2.61
#  31    2.23   -3.70    5.16    0.37   -0.44    0.00    0.00       3.62    0.62   -0.73
#  32   -1.22   -3.58    1.69   -0.48   -0.27    0.00    0.00      -3.86   -0.81   -0.46
#  33   -0.88   -2.99    1.19   -0.23   -0.26    0.00    0.00      -3.17   -0.39   -0.45
#  34   -5.69   -0.35    0.31    3.18    0.40    0.00    0.00      -2.14    4.68    0.59
#  35    0.94   -0.08    0.01    2.35    0.19    0.00    0.00       3.40    4.35    0.36
#  36   -0.13   -0.44    0.09    0.48   -0.11    0.00    0.00      -0.11    1.24   -0.28
#  37   -0.39   -0.20    0.01    0.44   -0.06    0.00    0.00      -0.19    2.12   -0.28
#  38   -0.50   -0.29    0.07    0.27   -0.08    0.00    0.00      -0.53    0.98   -0.28
#  39   -1.05   -0.38    0.18    0.73   -0.08    0.00    0.00      -0.59    2.67   -0.28
#  40   -0.88   -1.52    8.45    0.13   -0.09    0.00    0.00       6.08    0.33   -0.24
#  41   -3.66   -1.22    1.74    2.72   -0.15    0.00    0.00      -0.58    4.93   -0.28
#  42   -2.72   -0.44    0.11    1.49   -0.12    0.00    0.00      -1.69    3.55   -0.28
#  43   -2.84   -0.28    0.05    1.63   -0.08    0.00    0.00      -1.51    6.01   -0.28
#  44   -2.85   -0.38    0.08    1.37   -0.10    0.00    0.00      -1.88    3.87   -0.28
#  45   -1.12   -0.47    0.11    0.70   -0.10    0.00    0.00      -0.88    1.94   -0.28
#  46   -1.00   -0.15    0.01    0.47   -0.04    0.00    0.00      -0.71    3.34   -0.28
#  47   -0.48   -2.39    8.44    1.50   -0.15    0.00    0.00       6.92    2.72   -0.28
#  48    0.81   -0.58    0.20    1.16   -0.13    0.00    0.00       1.47    2.18   -0.24
#  49   -0.72   -1.06    0.46    2.13   -0.18    0.00    0.00       0.62    3.27   -0.28
#  50    0.19   -1.72    2.15    1.02   -0.19    0.00    0.00       1.45    1.53   -0.28
#  51    1.19   -0.64    0.41    0.13   -0.11    0.00    0.00       0.98    0.28   -0.23
#  52    0.55   -0.60    0.26    0.23   -0.16    0.00    0.00       0.28    0.42   -0.28
#  53    0.41   -0.59    0.31    0.43   -0.15    0.00    0.00       0.42    0.81   -0.28
#  54    0.64   -0.45    0.07    0.36   -0.13    0.00    0.00       0.49    0.78   -0.28
#  55    0.71   -0.46    0.16    0.18   -0.13    0.00    0.00       0.46    0.40   -0.28
#  56    1.11   -1.16    0.96    0.52   -0.17    0.00    0.00       1.27    0.87   -0.28
#  57    1.51   -0.92    0.99    0.77   -0.15    0.00    0.00       2.22    1.47   -0.28

@<TRIPOS>MOLECULE
             1551        86
   57    62     0     0     0



@<TRIPOS>ATOM
      1 N1         19.2785    12.1953    64.4369 N.pl3      1          -0.8257
      2 C1         20.5062    12.7496    64.1301 C.ar       1           0.5218
      3 C2         20.6408    14.1329    63.9261 C.ar       1          -0.3266
      4 C3         19.7287    15.2761    63.9539 C.2        1           0.1875
      5 N2         20.4353    16.3475    63.6803 N.2        1          -0.2434
      6 N3         21.7723    15.9941    63.4694 N.pl3      1          -0.3870
      7 C4         22.8528    16.9278    63.1418 C.3        1           0.1486
      8 C5         22.3762    17.9002    62.0611 C.3        1          -0.1198
      9 C6         22.4667    17.2257    60.6892 C.3        1          -0.1427
     10 C7         22.0647    18.2290    59.6061 C.3        1          -0.0058
     11 N4         22.9683    19.3851    59.6452 N.4        1          -0.5054
     12 H1         23.9202    19.0707    59.5316 H          1           0.4284
     13 H2         22.7333    20.0199    58.8968 H          1           0.4324
     14 C8         22.8338    20.0791    60.9316 C.3        1          -0.0046
     15 C9         23.2655    19.1470    62.0657 C.3        1          -0.1407
     16 C10        21.9138    14.6463    63.6158 C.ar       1           0.3785
     17 N5         22.9400    13.8000    63.5282 N.ar       1          -0.5786
     18 C11        22.7665    12.5121    63.7278 C.ar       1           0.3938
     19 N6         21.5907    11.9879    64.0258 N.ar       1          -0.5987
     20 C12        18.2747    15.2324    64.2377 C.ar       1          -0.0446
     21 C13        17.8259    14.7518    65.4557 C.ar       1          -0.0625
     22 C14        16.4496    14.7137    65.7163 C.ar       1          -0.1368
     23 C15        15.9527    14.2317    66.9451 C.ar       1          -0.0223
     24 C16        14.6034    14.2213    67.1363 C.ar       1          -0.1713
     25 C17        13.7520    14.6822    66.1245 C.ar       1           0.3714
     26 O1         12.4120    14.6661    66.3294 O.3        1          -0.2711
     27 C18        11.5872    15.1469    65.2660 C.3        1           0.0055
     28 C19        10.1259    14.6942    65.2455 C.3        1          -0.1774
     29 C20        11.1155    14.1313    64.2234 C.3        1          -0.1725
     30 N7         14.2207    15.1308    64.9802 N.ar       1          -0.5413
     31 C21        15.5351    15.1661    64.7328 C.ar       1           0.1865
     32 C22        16.0239    15.6481    63.5055 C.ar       1          -0.0955
     33 C23        17.3615    15.6838    63.2718 C.ar       1          -0.0637
     34 H3         19.2005    11.2393    64.5812 H          1           0.4145
     35 H4         18.4954    12.7626    64.5120 H          1           0.4146
     36 H5         23.1336    17.4862    64.0348 H          1           0.1082
     37 H6         23.7152    16.3712    62.7751 H          1           0.1016
     38 H7         21.3438    18.1883    62.2594 H          1           0.0961
     39 H8         23.4897    16.8920    60.5146 H          1           0.0936
     40 H9         21.7936    16.3690    60.6597 H          1           0.1122
     41 H10        22.1279    17.7519    58.6280 H          1           0.1343
     42 H11        21.0417    18.5619    59.7815 H          1           0.1286
     43 H12        23.4649    20.9678    60.9322 H          1           0.1369
     44 H13        21.7944    20.3726    61.0787 H          1           0.1309
     45 H14        23.1634    19.6634    63.0201 H          1           0.1184
     46 H15        24.3050    18.8531    61.9197 H          1           0.0941
     47 H16        23.6209    11.8562    63.6486 H          1           0.2078
     48 H17        18.5306    14.4087    66.1988 H          1           0.1386
     49 H18        16.6240    13.8797    67.7145 H          1           0.1524
     50 H19        14.1914    13.8579    68.0662 H          1           0.1520
     51 H20        11.8064    16.1573    64.9212 H          1           0.1420
     52 H21         9.7935    14.0298    66.0431 H          1           0.1040
     53 H22         9.3832    15.4071    64.8872 H          1           0.1082
     54 H23        11.0241    14.4739    63.1927 H          1           0.1095
     55 H24        11.4342    13.0965    64.3485 H          1           0.1049
     56 H25        15.3348    15.9953    62.7496 H          1           0.1439
     57 H26        17.7274    16.0602    62.3278 H          1           0.1362
@<TRIPOS>BOND
     1    1    2 1
     2    1   34 1
     3    1   35 1
     4    2   19 ar
     5    2    3 ar
     6    3   16 ar
     7    3    4 1
     8    4    5 2
     9    4   20 1
    10    5    6 1
    11    6    7 1
    12    6   16 1
    13    7    8 1
    14    7   36 1
    15    7   37 1
    16    8   15 1
    17    8    9 1
    18    8   38 1
    19    9   10 1
    20    9   39 1
    21    9   40 1
    22   10   11 1
    23   10   41 1
    24   10   42 1
    25   11   12 1
    26   11   13 1
    27   11   14 1
    28   14   15 1
    29   14   43 1
    30   14   44 1
    31   15   45 1
    32   15   46 1
    33   16   17 ar
    34   17   18 ar
    35   18   19 ar
    36   18   47 1
    37   20   33 ar
    38   20   21 ar
    39   21   22 ar
    40   21   48 1
    41   22   31 ar
    42   22   23 ar
    43   23   24 ar
    44   23   49 1
    45   24   25 ar
    46   24   50 1
    47   25   26 1
    48   25   30 ar
    49   26   27 1
    50   27   29 1
    51   27   28 1
    52   27   51 1
    53   28   29 1
    54   28   52 1
    55   28   53 1
    56   29   54 1
    57   29   55 1
    58   30   31 ar
    59   31   32 ar
    60   32   33 ar
    61   32   56 1
    62   33   57 1
##########                 Name:                 1514
##########          Protonation:                   86
##########               SMILES:   c1cc(cc2c1cc(cc2)OC3CC3)c4c5c(ncnc5n(n4)CC6CC[NH2+]CC6)N
##########            Long Name:   )-2-naphthyl]-1-(piperidin-1-ium-4-ylmethyl)pyrazolo[3,4-d]pyrimidin-4-amine
##########          FlexRecCode: 1
##########               Number:                  181
##########   Ligand Source File: /raid1/people/rgc/Examples/tdt/part3/ligand22set/build/ligand22set-0000001.db2.g
##########           GlobalRank: 4
##########                 Rank:                    1
##########               Setnum:                   73
##########             Matchnum:                66008
##########                Cloud:                    1
##########        Electrostatic:           -31.477669
##########        Van der Waals:           -27.455421
##########  Ligand Polar Desolv:            13.630916
########## Ligand Apolar Desolv:            -5.591022
##########      Internal Energy:             0.000000
##########      Receptor Energy: 0.0
########## Receptor Desolvation:             0.000000
########## Receptor Hydrophobic:             0.000000
##########         Total Energy: -50.89
##########        Ligand Charge:             1.000000
##########            Arbitrary:    +999.9990
##########     heavy atom count:   31
##########           pose count:   10
##########        Ligand Energy:             0.000000
# num electro vdwattr vdwrepu polsolv apolsol rdesolv rhydroe totalscore fullpol fullapo
#   1   -2.51   -2.82    0.96   -4.27    0.51    0.00    0.00      -8.12   -6.67    0.80
#   2    2.02   -2.17    0.45    1.74   -1.30    0.00    0.00       0.73    2.88   -2.15
#   3   -1.13   -1.68    0.37   -1.17   -0.23    0.00    0.00      -3.84   -2.27   -0.44
#   4    1.42   -1.82    0.47    0.56   -0.35    0.00    0.00       0.29    1.19   -0.75
#   5   -0.99   -1.92    0.56   -0.95    0.49    0.00    0.00      -2.81   -2.09    1.09
#   6    0.47   -1.33    0.15   -1.53    0.41    0.00    0.00      -1.84   -3.66    0.98
#   7   -0.88   -0.79    0.08    0.64   -0.16    0.00    0.00      -1.11    1.69   -0.43
#   8    1.41   -0.61    0.03   -0.81   -0.06    0.00    0.00      -0.04   -2.04   -0.15
#   9    2.15   -0.56    0.04   -1.04   -0.07    0.00    0.00       0.52   -3.32   -0.22
#  10    0.15   -1.66    1.80    0.29   -0.17    0.00    0.00       0.41    0.81   -0.47
#  11   12.75   -1.79    0.70   -6.10    0.34    0.00    0.00       5.89  -16.13    0.89
#  12   -8.66   -0.03    0.00    4.61    0.15    0.00    0.00      -3.93   16.80    0.56
#  13  -13.32   -0.08    0.01    7.05    0.22    0.00    0.00      -6.11   17.91    0.57
#  14    0.10   -1.61    0.64    0.27   -0.21    0.00    0.00      -0.80    0.62   -0.47
#  15    1.88   -1.36    0.42   -1.51   -0.09    0.00    0.00      -0.68   -3.51   -0.22
#  16    0.07   -1.58    0.34    1.03   -0.97    0.00    0.00      -1.11    2.35   -2.20
#  17    0.94   -1.75    0.35   -1.77    0.94    0.00    0.00      -1.29   -3.93    2.09
#  18   -0.78   -3.32    2.29    1.24   -1.61    0.00    0.00      -2.19    2.43   -3.16
#  19   -2.11   -3.82    1.90   -1.97    1.23    0.00    0.00      -4.77   -3.33    2.08
#  20   -0.73   -1.98    0.49   -0.19   -0.20    0.00    0.00      -2.61   -0.35   -0.37
#  21   -1.51   -3.15    1.99   -0.41   -0.19    0.00    0.00      -3.27   -0.74   -0.34
#  22   -1.48   -3.65    1.72   -0.53   -0.27    0.00    0.00      -4.21   -0.89   -0.45
#  23    0.02   -2.61    0.80   -0.10   -0.24    0.00    0.00      -2.12   -0.17   -0.40
#  24   -2.03   -2.87    1.66   -0.51   -0.28    0.00    0.00      -4.03   -0.85   -0.46
#  25    1.55   -2.62    1.21    0.23   -0.20    0.00    0.00       0.17    0.36   -0.31
#  26   -2.56   -1.94    0.38   -0.57    0.60    0.00    0.00      -4.10   -0.87    0.91
#  27   -0.06   -1.46    0.53   -0.09   -0.17    0.00    0.00      -1.25   -0.14   -0.26
#  28   -1.33   -2.51    2.28   -0.70   -0.28    0.00    0.00      -2.55   -1.10   -0.44
#  29   -1.03   -1.42    0.33   -0.65   -0.28    0.00    0.00      -3.06   -1.03   -0.44
#  30   -1.15   -3.28    0.98   -0.86   -0.28    0.00    0.00      -4.61   -1.33   -0.43
#  31   -0.39   -3.06    0.78   -0.29   -0.30    0.00    0.00      -3.27   -0.44   -0.46
#  32   -1.06   -2.22    0.39   -0.47   -0.26    0.00    0.00      -3.61   -0.73   -0.40
#  33   -0.50   -2.25    0.63   -0.25   -0.26    0.00    0.00      -2.64   -0.42   -0.45
#  34   -0.09   -0.07    0.00    2.43    0.36    0.00    0.00       2.63    3.98    0.59
#  35    1.70   -0.03    0.00    1.80    0.18    0.00    0.00       3.64    3.76    0.37
#  36   -0.55   -0.47    0.13    0.43   -0.10    0.00    0.00      -0.56    1.20   -0.28
#  37   -0.64   -0.18    0.01    0.35   -0.05    0.00    0.00      -0.51    2.13   -0.28
#  38   -1.25   -0.21    0.02    0.21   -0.07    0.00    0.00      -1.29    0.89   -0.28
#  39   -1.01   -0.14    0.01    0.39   -0.04    0.00    0.00      -0.80    2.68   -0.28
#  40   -1.53   -0.15    0.01    0.04   -0.04    0.00    0.00      -1.67    0.24   -0.24
#  41   -3.79   -0.94    2.92    1.22   -0.07    0.00    0.00      -0.66    4.89   -0.28
#  42   -4.37   -0.96    1.68    1.36   -0.11    0.00    0.00      -2.40    3.42   -0.28
#  43   -3.26   -1.07    1.44    2.83   -0.13    0.00    0.00      -0.19    6.05   -0.28
#  44   -3.09   -0.39    0.08    1.43   -0.11    0.00    0.00      -2.08    3.78   -0.28
#  45   -0.99   -0.51    0.22    0.70   -0.10    0.00    0.00      -0.68    1.92   -0.28
#  46   -1.19   -0.84    0.79    1.31   -0.11    0.00    0.00      -0.04    3.38   -0.28
#  47   -1.37   -1.13    2.49    1.13   -0.12    0.00    0.00       1.00    2.55   -0.28
#  48    1.10   -0.82    0.82    0.74   -0.12    0.00    0.00       1.71    1.50   -0.25
#  49    0.99   -1.41    1.66    1.07   -0.18    0.00    0.00       2.13    1.69   -0.28
#  50    1.36   -0.62    0.22    0.33   -0.14    0.00    0.00       1.15    0.65   -0.28
#  51    1.19   -0.97    3.28    0.55   -0.09    0.00    0.00       3.96    1.30   -0.20
#  52    0.92   -2.35   11.09    0.21   -0.15    0.00    0.00       9.72    0.38   -0.28
#  53    0.71   -0.84    0.39    0.63   -0.15    0.00    0.00       0.73    1.14   -0.28
#  54    0.53   -0.38    0.07    0.56   -0.15    0.00    0.00       0.64    1.07   -0.28
#  55    0.67   -0.80    1.33    0.18   -0.15    0.00    0.00       1.23    0.34   -0.28
#  56    0.17   -1.03    0.67    0.89   -0.12    0.00    0.00       0.58    1.43   -0.19
#  57    0.41   -0.81    0.22    1.25   -0.18    0.00    0.00       0.89    1.98   -0.28
#  58    1.20   -0.77    0.93    0.69   -0.13    0.00    0.00       1.91    1.46   -0.28

@<TRIPOS>MOLECULE
             1514        86
   58    63     0     0     0



@<TRIPOS>ATOM
      1 N1         20.1884    12.8506    64.3202 N.pl3      1          -0.8252
      2 C1         21.4020    13.4262    63.9971 C.ar       1           0.5218
      3 C2         21.4943    14.7981    63.7097 C.ar       1          -0.3250
      4 C3         20.5446    15.9092    63.6526 C.2        1           0.1912
      5 N2         21.2200    16.9850    63.3232 N.2        1          -0.2485
      6 N3         22.5712    16.6650    63.1545 N.pl3      1          -0.3884
      7 C4         23.6256    17.6128    62.7854 C.3        1           0.1492
      8 C5         23.1357    18.4999    61.6391 C.3        1          -0.1198
      9 C6         24.3374    19.1325    60.9316 C.3        1          -0.1425
     10 C7         23.8380    20.0797    59.8383 C.3        1          -0.0058
     11 N4         23.0115    21.1335    60.4390 N.4        1          -0.5053
     12 H1         23.5472    21.6201    61.1420 H          1           0.4283
     13 H2         22.7271    21.7855    59.7232 H          1           0.4323
     14 C8         21.8199    20.5401    61.0574 C.3        1          -0.0046
     15 C9         22.2416    19.6108    62.1976 C.3        1          -0.1406
     16 C10        22.7546    15.3343    63.3868 C.ar       1           0.3770
     17 N5         23.8096    14.5196    63.3671 N.ar       1          -0.5792
     18 C11        23.6753    13.2413    63.6436 C.ar       1           0.3924
     19 N6         22.5126    12.6968    63.9558 N.ar       1          -0.5988
     20 C12        19.0884    15.8337    63.9178 C.ar       1          -0.0530
     21 C13        18.1773    16.1879    62.9088 C.ar       1          -0.1005
     22 C14        16.8385    16.1273    63.1268 C.ar       1          -0.1024
     23 C15        16.3476    15.7054    64.3762 C.ar       1           0.0013
     24 C16        14.9675    15.6341    64.6248 C.ar       1          -0.1604
     25 C17        14.5211    15.2204    65.8478 C.ar       1           0.1505
     26 O1         13.1849    15.1519    66.0857 O.3        1          -0.2797
     27 C18        12.3407    14.8692    64.9681 C.3        1          -0.0074
     28 C19        11.4212    15.9888    64.4761 C.3        1          -0.1809
     29 C20        10.8341    14.7895    65.2231 C.3        1          -0.1664
     30 C21        15.4206    14.8660    66.8581 C.ar       1          -0.1858
     31 C22        16.7630    14.9239    66.6497 C.ar       1          -0.0584
     32 C23        17.2580    15.3455    65.4020 C.ar       1          -0.0859
     33 C24        18.6378    15.4097    65.1547 C.ar       1          -0.0430
     34 H3         20.1396    11.9032    64.5225 H          1           0.4142
     35 H4         19.3859    13.3946    64.3488 H          1           0.4162
     36 H5         23.8729    18.2344    63.6458 H          1           0.1075
     37 H6         24.5120    17.0640    62.4668 H          1           0.1007
     38 H7         22.5687    17.8979    60.9291 H          1           0.0960
     39 H8         24.9321    19.6918    61.6538 H          1           0.0931
     40 H9         24.9495    18.3499    60.4833 H          1           0.1125
     41 H10        24.6912    20.5318    59.3324 H          1           0.1343
     42 H11        23.2438    19.5194    59.1164 H          1           0.1287
     43 H12        21.1830    21.3320    61.4515 H          1           0.1367
     44 H13        21.2687    19.9702    60.3096 H          1           0.1309
     45 H14        21.3555    19.1698    62.6543 H          1           0.1182
     46 H15        22.7927    20.1798    62.9461 H          1           0.0938
     47 H16        24.5519    12.6110    63.6175 H          1           0.2072
     48 H17        18.5465    16.5131    61.9474 H          1           0.1308
     49 H18        16.1504    16.4032    62.3414 H          1           0.1382
     50 H19        14.2623    15.9054    63.8531 H          1           0.1399
     51 H20        12.7606    14.1971    64.2196 H          1           0.1267
     52 H21        11.4603    16.9412    65.0051 H          1           0.1056
     53 H22        11.2363    16.0536    63.4039 H          1           0.1077
     54 H23        10.2630    14.0653    64.6422 H          1           0.1104
     55 H24        10.4870    14.9527    66.2433 H          1           0.1067
     56 H25        15.0440    14.5423    67.8172 H          1           0.1383
     57 H26        17.4466    14.6476    67.4388 H          1           0.1359
     58 H27        19.3424    15.1340    65.9254 H          1           0.1333
@<TRIPOS>BOND
     1    1    2 1
     2    1   34 1
     3    1   35 1
     4    2   19 ar
     5    2    3 ar
     6    3   16 ar
     7    3    4 1
     8    4    5 2
     9    4   20 1
    10    5    6 1
    11    6    7 1
    12    6   16 1
    13    7    8 1
    14    7   36 1
    15    7   37 1
    16    8   15 1
    17    8    9 1
    18    8   38 1
    19    9   10 1
    20    9   39 1
    21    9   40 1
    22   10   11 1
    23   10   41 1
    24   10   42 1
    25   11   12 1
    26   11   13 1
    27   11   14 1
    28   14   15 1
    29   14   43 1
    30   14   44 1
    31   15   45 1
    32   15   46 1
    33   16   17 ar
    34   17   18 ar
    35   18   19 ar
    36   18   47 1
    37   20   33 ar
    38   20   21 ar
    39   21   22 ar
    40   21   48 1
    41   22   23 ar
    42   22   49 1
    43   23   32 ar
    44   23   24 ar
    45   24   25 ar
    46   24   50 1
    47   25   26 1
    48   25   30 ar
    49   26   27 1
    50   27   29 1
    51   27   28 1
    52   27   51 1
    53   28   29 1
    54   28   52 1
    55   28   53 1
    56   29   54 1
    57   29   55 1
    58   30   31 ar
    59   30   56 1
    60   31   32 ar
    61   31   57 1
    62   32   33 ar
    63   33   58 1
##########                 Name:                 1514
##########          Protonation:                   86
##########               SMILES:   c1cc(cc2c1cc(cc2)OC3CC3)c4c5c(ncnc5n(n4)CC6CC[NH2+]CC6)N
##########            Long Name:   )-2-naphthyl]-1-(piperidin-1-ium-4-ylmethyl)pyrazolo[3,4-d]pyrimidin-4-amine
##########          FlexRecCode: 1
##########               Number:                  180
##########   Ligand Source File: /raid1/people/rgc/Examples/tdt/part3/ligand22set/build/ligand22set-0000001.db2.g
##########           GlobalRank: 4
##########                 Rank:                    1
##########               Setnum:                  247
##########             Matchnum:                11246
##########                Cloud:                    1
##########        Electrostatic:           -35.390423
##########        Van der Waals:           -23.147501
##########  Ligand Polar Desolv:            13.409981
########## Ligand Apolar Desolv:            -5.569590
##########      Internal Energy:             0.000000
##########      Receptor Energy: 0.0
########## Receptor Desolvation:             0.000000
########## Receptor Hydrophobic:             0.000000
##########         Total Energy: -50.7
##########        Ligand Charge:             1.000000
##########            Arbitrary:    +999.9990
##########     heavy atom count:   31
##########           pose count:   10
##########        Ligand Energy:             0.000000
# num electro vdwattr vdwrepu polsolv apolsol rdesolv rhydroe totalscore fullpol fullapo
#   1   -2.50   -2.46    0.47   -4.24    0.51    0.00    0.00      -8.22   -6.67    0.80
#   2    1.86   -1.96    0.39    1.73   -1.30    0.00    0.00       0.73    2.88   -2.15
#   3   -1.27   -1.65    0.40   -1.17   -0.23    0.00    0.00      -3.91   -2.27   -0.44
#   4    1.78   -1.99    0.62    0.57   -0.36    0.00    0.00       0.63    1.19   -0.75
#   5   -1.66   -2.75    1.80   -0.97    0.51    0.00    0.00      -3.08   -2.09    1.09
#   6    0.04   -1.53    0.22   -1.60    0.43    0.00    0.00      -2.43   -3.66    0.98
#   7   -0.73   -1.02    0.13    0.70   -0.18    0.00    0.00      -1.10    1.69   -0.43
#   8    1.29   -0.82    0.07   -0.83   -0.06    0.00    0.00      -0.34   -2.04   -0.15
#   9    2.13   -0.76    0.07   -1.39   -0.09    0.00    0.00      -0.04   -3.32   -0.22
#  10    0.15   -1.43    0.46    0.38   -0.22    0.00    0.00      -0.67    0.81   -0.47
#  11   14.63   -2.47    2.42   -6.44    0.36    0.00    0.00       8.49  -16.13    0.89
#  12  -13.57   -0.07    0.01    5.04    0.17    0.00    0.00      -8.41   16.80    0.56
#  13  -14.59   -0.11    0.01    7.66    0.24    0.00    0.00      -6.78   17.91    0.57
#  14    0.09   -1.09    0.35    0.22   -0.17    0.00    0.00      -0.59    0.62   -0.47
#  15    1.77   -0.91    0.16   -1.19   -0.07    0.00    0.00      -0.24   -3.51   -0.22
#  16    0.23   -1.55    0.33    1.02   -0.95    0.00    0.00      -0.92    2.35   -2.20
#  17    0.86   -1.61    0.29   -1.74    0.93    0.00    0.00      -1.27   -3.93    2.09
#  18   -0.88   -2.82    1.58    1.23   -1.60    0.00    0.00      -2.49    2.43   -3.16
#  19   -1.80   -3.14    1.03   -1.98    1.24    0.00    0.00      -4.65   -3.33    2.08
#  20   -0.81   -2.16    0.68   -0.19   -0.20    0.00    0.00      -2.68   -0.35   -0.37
#  21   -1.75   -3.82    4.12   -0.42   -0.19    0.00    0.00      -2.07   -0.74   -0.34
#  22   -1.53   -4.01    2.15   -0.54   -0.27    0.00    0.00      -4.21   -0.89   -0.45
#  23    0.02   -2.72    0.92   -0.10   -0.24    0.00    0.00      -2.12   -0.17   -0.40
#  24   -1.93   -2.93    1.87   -0.51   -0.28    0.00    0.00      -3.77   -0.85   -0.46
#  25    1.45   -2.99    2.70    0.23   -0.20    0.00    0.00       1.19    0.36   -0.31
#  26   -2.42   -1.99    0.48   -0.55    0.58    0.00    0.00      -3.90   -0.87    0.91
#  27   -0.06   -1.39    0.39   -0.09   -0.17    0.00    0.00      -1.31   -0.14   -0.26
#  28   -1.24   -2.81    3.20   -0.70   -0.28    0.00    0.00      -1.82   -1.10   -0.44
#  29   -0.92   -1.38    0.27   -0.65   -0.28    0.00    0.00      -2.96   -1.03   -0.44
#  30   -0.94   -3.72    1.91   -0.84   -0.27    0.00    0.00      -3.87   -1.33   -0.43
#  31   -0.29   -3.26    1.20   -0.29   -0.30    0.00    0.00      -2.93   -0.44   -0.46
#  32   -1.02   -2.33    0.57   -0.47   -0.26    0.00    0.00      -3.51   -0.73   -0.40
#  33   -0.50   -2.07    0.38   -0.25   -0.27    0.00    0.00      -2.72   -0.42   -0.45
#  34   -0.15   -0.06    0.00    2.49    0.37    0.00    0.00       2.66    3.98    0.59
#  35    1.94   -0.03    0.00    1.74    0.17    0.00    0.00       3.82    3.76    0.37
#  36   -0.35   -0.68    0.23    0.52   -0.12    0.00    0.00      -0.40    1.20   -0.28
#  37   -0.63   -0.22    0.03    0.43   -0.06    0.00    0.00      -0.45    2.13   -0.28
#  38   -1.02   -0.43    0.10    0.32   -0.10    0.00    0.00      -1.14    0.89   -0.28
#  39   -1.37   -0.23    0.03    0.66   -0.07    0.00    0.00      -0.98    2.68   -0.28
#  40   -1.21   -0.28    0.05    0.07   -0.07    0.00    0.00      -1.43    0.24   -0.24
#  41   -4.15   -0.85    0.62    2.32   -0.13    0.00    0.00      -2.20    4.89   -0.28
#  42   -3.08   -0.40    0.09    1.29   -0.11    0.00    0.00      -2.20    3.42   -0.28
#  43   -2.11   -0.21    0.03    1.29   -0.06    0.00    0.00      -1.06    6.05   -0.28
#  44   -3.42   -0.86    1.68    1.33   -0.10    0.00    0.00      -1.37    3.78   -0.28
#  45   -1.00   -0.61    0.29    0.61   -0.09    0.00    0.00      -0.80    1.92   -0.28
#  46   -1.02   -0.14    0.01    0.48   -0.04    0.00    0.00      -0.72    3.38   -0.28
#  47   -1.78   -1.33    4.84    1.11   -0.12    0.00    0.00       2.72    2.55   -0.28
#  48    1.44   -0.99    1.44    0.75   -0.12    0.00    0.00       2.52    1.50   -0.25
#  49    0.41   -1.91    5.31    1.09   -0.18    0.00    0.00       4.72    1.69   -0.28
#  50    1.26   -0.64    0.24    0.33   -0.14    0.00    0.00       1.05    0.65   -0.28
#  51    1.20   -0.66    0.96    0.55   -0.08    0.00    0.00       1.96    1.30   -0.20
#  52    0.87   -2.38   11.83    0.21   -0.15    0.00    0.00      10.38    0.38   -0.28
#  53    0.63   -1.06    0.80    0.65   -0.16    0.00    0.00       0.87    1.14   -0.28
#  54    0.40   -0.45    0.17    0.55   -0.15    0.00    0.00       0.54    1.07   -0.28
#  55    0.60   -0.57    0.37    0.18   -0.15    0.00    0.00       0.44    0.34   -0.28
#  56    0.12   -1.05    0.65    0.89   -0.12    0.00    0.00       0.50    1.43   -0.19
#  57   -0.02   -0.77    0.22    1.24   -0.18    0.00    0.00       0.49    1.98   -0.28
#  58    1.13   -0.55    0.25    0.68   -0.13    0.00    0.00       1.39    1.46   -0.28

@<TRIPOS>MOLECULE
             1514        86
   58    63     0     0     0



@<TRIPOS>ATOM
      1 N1         19.9128    12.9420    63.8385 N.pl3      1          -0.8252
      2 C1         21.1289    13.5646    63.6338 C.ar       1           0.5218
      3 C2         21.2220    14.9655    63.5890 C.ar       1          -0.3250
      4 C3         20.2709    16.0699    63.7140 C.2        1           0.1912
      5 N2         20.9480    17.1864    63.5835 N.2        1          -0.2485
      6 N3         22.3017    16.9002    63.3775 N.pl3      1          -0.3884
      7 C4         23.3585    17.8973    63.1901 C.3        1           0.1492
      8 C5         22.8800    18.9694    62.2090 C.3        1          -0.1198
      9 C6         22.5570    18.3212    60.8596 C.3        1          -0.1425
     10 C7         22.1556    19.4086    59.8607 C.3        1          -0.0058
     11 N4         23.2617    20.3594    59.6962 N.4        1          -0.5053
     12 H1         24.0889    19.8636    59.3999 H          1           0.4283
     13 H2         23.0136    21.0449    58.9985 H          1           0.4323
     14 C8         23.5294    21.0373    60.9704 C.3        1          -0.0046
     15 C9         23.9837    20.0125    62.0120 C.3        1          -0.1406
     16 C10        22.4849    15.5493    63.3783 C.ar       1           0.3770
     17 N5         23.5415    14.7502    63.2302 N.ar       1          -0.5792
     18 C11        23.4065    13.4432    63.2799 C.ar       1           0.3924
     19 N6         22.2413    12.8532    63.4798 N.ar       1          -0.5988
     20 C12        18.8120    15.9499    63.9453 C.ar       1          -0.0530
     21 C13        17.9118    16.4734    63.0023 C.ar       1          -0.1005
     22 C14        16.5706    16.3762    63.1911 C.ar       1          -0.1024
     23 C15        16.0663    15.7446    64.3429 C.ar       1           0.0013
     24 C16        14.6836    15.6317    64.5596 C.ar       1          -0.1604
     25 C17        14.2240    15.0128    65.6873 C.ar       1           0.1505
     26 O1         12.8854    14.9044    65.8943 O.3        1          -0.2797
     27 C18        12.0545    14.8194    64.7350 C.3        1          -0.0074
     28 C19        11.1386    16.0073    64.4335 C.3        1          -0.1809
     29 C20        10.5452    14.6970    64.9549 C.3        1          -0.1664
     30 C21        15.1127    14.4889    66.6314 C.ar       1          -0.1858
     31 C22        16.4573    14.5816    66.4517 C.ar       1          -0.0584
     32 C23        16.9657    15.2126    65.3015 C.ar       1          -0.0859
     33 C24        18.3481    15.3184    65.0849 C.ar       1          -0.0430
     34 H3         19.8634    11.9739    63.8732 H          1           0.4142
     35 H4         19.1090    13.4730    63.9515 H          1           0.4162
     36 H5         23.5948    18.3607    64.1479 H          1           0.1075
     37 H6         24.2495    17.4118    62.7917 H          1           0.1007
     38 H7         21.9874    19.4535    62.6050 H          1           0.0960
     39 H8         23.4360    17.7936    60.4896 H          1           0.0931
     40 H9         21.7338    17.6173    60.9817 H          1           0.1125
     41 H10        21.9248    18.9505    58.8989 H          1           0.1343
     42 H11        21.2762    19.9354    60.2316 H          1           0.1287
     43 H12        24.3128    21.7816    60.8278 H          1           0.1367
     44 H13        22.6208    21.5293    61.3175 H          1           0.1309
     45 H14        24.1802    20.5176    62.9577 H          1           0.1182
     46 H15        24.8923    19.5201    61.6658 H          1           0.0938
     47 H16        24.2845    12.8269    63.1554 H          1           0.2072
     48 H17        18.2913    16.9600    62.1160 H          1           0.1308
     49 H18        15.8911    16.7839    62.4574 H          1           0.1382
     50 H19        13.9868    16.0325    63.8382 H          1           0.1399
     51 H20        12.4842    14.2867    63.8865 H          1           0.1267
     52 H21        11.1699    16.8538    65.1196 H          1           0.1056
     53 H22        10.9658    16.2566    63.3865 H          1           0.1077
     54 H23         9.9821    14.0842    64.2510 H          1           0.1104
     55 H24        10.1863    14.6813    65.9839 H          1           0.1067
     56 H25        14.7257    14.0042    67.5156 H          1           0.1383
     57 H26        17.1323    14.1730    67.1889 H          1           0.1359
     58 H27        19.0443    14.9135    65.8044 H          1           0.1333
@<TRIPOS>BOND
     1    1    2 1
     2    1   34 1
     3    1   35 1
     4    2   19 ar
     5    2    3 ar
     6    3   16 ar
     7    3    4 1
     8    4    5 2
     9    4   20 1
    10    5    6 1
    11    6    7 1
    12    6   16 1
    13    7    8 1
    14    7   36 1
    15    7   37 1
    16    8   15 1
    17    8    9 1
    18    8   38 1
    19    9   10 1
    20    9   39 1
    21    9   40 1
    22   10   11 1
    23   10   41 1
    24   10   42 1
    25   11   12 1
    26   11   13 1
    27   11   14 1
    28   14   15 1
    29   14   43 1
    30   14   44 1
    31   15   45 1
    32   15   46 1
    33   16   17 ar
    34   17   18 ar
    35   18   19 ar
    36   18   47 1
    37   20   33 ar
    38   20   21 ar
    39   21   22 ar
    40   21   48 1
    41   22   23 ar
    42   22   49 1
    43   23   32 ar
    44   23   24 ar
    45   24   25 ar
    46   24   50 1
    47   25   26 1
    48   25   30 ar
    49   26   27 1
    50   27   29 1
    51   27   28 1
    52   27   51 1
    53   28   29 1
    54   28   52 1
    55   28   53 1
    56   29   54 1
    57   29   55 1
    58   30   31 ar
    59   30   56 1
    60   31   32 ar
    61   31   57 1
    62   32   33 ar
    63   33   58 1
##########                 Name:                 1514
##########          Protonation:                   86
##########               SMILES:   c1cc(cc2c1cc(cc2)OC3CC3)c4c5c(ncnc5n(n4)CC6CC[NH2+]CC6)N
##########            Long Name:   )-2-naphthyl]-1-(piperidin-1-ium-4-ylmethyl)pyrazolo[3,4-d]pyrimidin-4-amine
##########          FlexRecCode: 1
##########               Number:                  186
##########   Ligand Source File: /raid1/people/rgc/Examples/tdt/part3/ligand22set/build/ligand22set-0000001.db2.g
##########           GlobalRank: 6
##########                 Rank:                    1
##########               Setnum:                  161
##########             Matchnum:                34423
##########                Cloud:                    1
##########        Electrostatic:           -37.396744
##########        Van der Waals:           -21.009674
##########  Ligand Polar Desolv:            14.258351
########## Ligand Apolar Desolv:            -5.563509
##########      Internal Energy:             0.000000
##########      Receptor Energy: 0.0
########## Receptor Desolvation:             0.000000
########## Receptor Hydrophobic:             0.000000
##########         Total Energy: -49.71
##########        Ligand Charge:             1.000000
##########            Arbitrary:    +999.9990
##########     heavy atom count:   31
##########           pose count:   10
##########        Ligand Energy:             0.000000
# num electro vdwattr vdwrepu polsolv apolsol rdesolv rhydroe totalscore fullpol fullapo
#   1   -2.55   -3.36    2.64   -4.22    0.51    0.00    0.00      -6.98   -6.67    0.80
#   2    2.29   -2.49    0.91    1.76   -1.31    0.00    0.00       1.15    2.88   -2.15
#   3   -1.39   -1.92    0.55   -1.18   -0.23    0.00    0.00      -4.16   -2.27   -0.44
#   4    1.55   -2.21    1.04    0.57   -0.36    0.00    0.00       0.59    1.19   -0.75
#   5   -1.14   -2.35    1.09   -0.97    0.50    0.00    0.00      -2.86   -2.09    1.09
#   6    0.06   -1.60    0.25   -1.57    0.42    0.00    0.00      -2.45   -3.66    0.98
#   7   -0.71   -1.05    0.19    0.66   -0.17    0.00    0.00      -1.08    1.69   -0.43
#   8    1.18   -0.63    0.03   -0.78   -0.06    0.00    0.00      -0.25   -2.04   -0.15
#   9    1.75   -0.95    0.27   -1.23   -0.08    0.00    0.00      -0.24   -3.32   -0.22
#  10    0.13   -1.53    0.48    0.36   -0.21    0.00    0.00      -0.77    0.81   -0.47
#  11   15.49   -3.99   11.66   -6.26    0.35    0.00    0.00      17.25  -16.13    0.89
#  12  -10.92   -0.06    0.00    5.23    0.17    0.00    0.00      -5.57   16.80    0.56
#  13  -22.29   -0.56    1.18    8.18    0.26    0.00    0.00     -13.24   17.91    0.57
#  14    0.09   -0.84    0.22    0.20   -0.15    0.00    0.00      -0.48    0.62   -0.47
#  15    1.65   -0.57    0.04   -1.04   -0.06    0.00    0.00       0.02   -3.51   -0.22
#  16    0.48   -1.89    0.52    1.07   -1.00    0.00    0.00      -0.82    2.35   -2.20
#  17    0.18   -2.36    1.08   -1.85    0.98    0.00    0.00      -1.96   -3.93    2.09
#  18    0.08   -3.92    3.63    1.29   -1.68    0.00    0.00      -0.59    2.43   -3.16
#  19   -2.77   -4.27    2.94   -2.00    1.25    0.00    0.00      -4.85   -3.33    2.08
#  20   -0.77   -2.27    0.81   -0.19   -0.20    0.00    0.00      -2.62   -0.35   -0.37
#  21   -1.77   -3.33    3.30   -0.42   -0.19    0.00    0.00      -2.41   -0.74   -0.34
#  22   -1.74   -3.55    1.62   -0.53   -0.27    0.00    0.00      -4.46   -0.89   -0.45
#  23    0.02   -2.64    0.82   -0.10   -0.24    0.00    0.00      -2.14   -0.17   -0.40
#  24   -2.26   -2.67    0.84   -0.52   -0.28    0.00    0.00      -4.91   -0.85   -0.46
#  25    1.77   -2.36    0.53    0.24   -0.20    0.00    0.00      -0.03    0.36   -0.31
#  26   -2.81   -1.89    0.30   -0.58    0.60    0.00    0.00      -4.37   -0.87    0.91
#  27   -0.06   -2.44    1.44   -0.09   -0.16    0.00    0.00      -1.31   -0.14   -0.26
#  28   -1.34   -2.92    3.85   -0.67   -0.27    0.00    0.00      -1.35   -1.10   -0.44
#  29   -1.10   -2.25    1.69   -0.66   -0.28    0.00    0.00      -2.60   -1.03   -0.44
#  30   -1.54   -3.52    1.65   -0.87   -0.28    0.00    0.00      -4.56   -1.33   -0.43
#  31   -0.48   -3.52    1.63   -0.29   -0.31    0.00    0.00      -2.98   -0.44   -0.46
#  32   -1.17   -2.36    0.47   -0.48   -0.26    0.00    0.00      -3.80   -0.73   -0.40
#  33   -0.53   -2.61    1.05   -0.25   -0.27    0.00    0.00      -2.60   -0.42   -0.45
#  34   -0.38   -0.08    0.01    2.38    0.35    0.00    0.00       2.27    3.98    0.59
#  35    1.84   -0.03    0.00    1.70    0.17    0.00    0.00       3.68    3.76    0.37
#  36   -0.45   -0.77    0.46    0.49   -0.11    0.00    0.00      -0.38    1.20   -0.28
#  37   -0.55   -0.25    0.04    0.44   -0.06    0.00    0.00      -0.38    2.13   -0.28
#  38   -0.99   -0.24    0.02    0.23   -0.07    0.00    0.00      -1.06    0.89   -0.28
#  39   -0.99   -0.30    0.09    0.67   -0.07    0.00    0.00      -0.60    2.68   -0.28
#  40   -0.96   -0.45    0.37    0.07   -0.07    0.00    0.00      -1.03    0.24   -0.24
#  41   -3.52   -1.02    1.17    2.55   -0.15    0.00    0.00      -0.97    4.89   -0.28
#  42   -3.04   -0.36    0.06    1.26   -0.10    0.00    0.00      -2.18    3.42   -0.28
#  43   -2.33   -0.21    0.05    1.01   -0.05    0.00    0.00      -1.53    6.05   -0.28
#  44   -2.95   -0.27    0.04    1.09   -0.08    0.00    0.00      -2.18    3.78   -0.28
#  45   -0.99   -0.27    0.04    0.45   -0.07    0.00    0.00      -0.84    1.92   -0.28
#  46   -0.91   -0.12    0.01    0.39   -0.03    0.00    0.00      -0.67    3.38   -0.28
#  47   -0.55   -1.02    1.11    1.23   -0.14    0.00    0.00       0.64    2.55   -0.28
#  48    1.43   -0.72    0.57    0.70   -0.12    0.00    0.00       1.87    1.50   -0.25
#  49    1.08   -1.28    1.36    1.06   -0.18    0.00    0.00       2.05    1.69   -0.28
#  50    1.30   -0.70    0.39    0.34   -0.15    0.00    0.00       1.18    0.65   -0.28
#  51    0.84   -1.40    2.22    0.80   -0.12    0.00    0.00       2.33    1.30   -0.20
#  52    0.90   -0.98    3.23    0.16   -0.12    0.00    0.00       3.18    0.38   -0.28
#  53    0.80   -1.82    4.56    0.67   -0.17    0.00    0.00       4.04    1.14   -0.28
#  54    0.67   -1.38    3.39    0.65   -0.17    0.00    0.00       3.17    1.07   -0.28
#  55    0.64   -0.43    0.12    0.18   -0.15    0.00    0.00       0.36    0.34   -0.28
#  56    0.52   -1.13    0.89    0.87   -0.12    0.00    0.00       1.04    1.43   -0.19
#  57    0.56   -1.01    0.53    1.26   -0.18    0.00    0.00       1.16    1.98   -0.28
#  58    1.25   -0.96    1.69    0.75   -0.14    0.00    0.00       2.58    1.46   -0.28

@<TRIPOS>MOLECULE
             1514        86
   58    63     0     0     0



@<TRIPOS>ATOM
      1 N1         20.0243    12.9470    64.6845 N.pl3      1          -0.8252
      2 C1         21.2772    13.4524    64.3963 C.ar       1           0.5218
      3 C2         21.4524    14.8125    64.0918 C.ar       1          -0.3250
      4 C3         20.5657    15.9710    63.9844 C.2        1           0.1912
      5 N2         21.3084    17.0040    63.6634 N.2        1          -0.2485
      6 N3         22.6457    16.6106    63.5476 N.pl3      1          -0.3884
      7 C4         23.7614    17.4952    63.2022 C.3        1           0.1492
      8 C5         23.3594    18.3875    62.0262 C.3        1          -0.1198
      9 C6         23.0175    17.5151    60.8148 C.3        1          -0.1425
     10 C7         22.6937    18.4150    59.6203 C.3        1          -0.0058
     11 N4         23.8554    19.2558    59.3074 N.4        1          -0.5053
     12 H1         24.6563    18.6684    59.1295 H          1           0.4283
     13 H2         23.6572    19.8099    58.4876 H          1           0.4323
     14 C8         24.1449    20.1460    60.4379 C.3        1          -0.0046
     15 C9         24.5246    19.3128    61.6639 C.3        1          -0.1406
     16 C10        22.7499    15.2762    63.8061 C.ar       1           0.3770
     17 N5         23.7601    14.4068    63.8361 N.ar       1          -0.5792
     18 C11        23.5485    13.1421    64.1267 C.ar       1           0.3924
     19 N6         22.3483    12.6650    64.4054 N.ar       1          -0.5988
     20 C12        19.0993    15.9767    64.1987 C.ar       1          -0.0530
     21 C13        18.2439    16.3615    63.1527 C.ar       1          -0.1005
     22 C14        16.8969    16.3751    63.3237 C.ar       1          -0.1024
     23 C15        16.3412    16.0007    64.5610 C.ar       1           0.0013
     24 C16        14.9514    16.0063    64.7613 C.ar       1          -0.1604
     25 C17        14.4413    15.6373    65.9736 C.ar       1           0.1505
     26 O1         13.0960    15.6433    66.1648 O.3        1          -0.2797
     27 C18        12.4848    14.3997    66.5136 C.3        1          -0.0074
     28 C19        12.1783    13.4202    65.3790 C.3        1          -0.1809
     29 C20        11.0387    14.1736    66.0678 C.3        1          -0.1664
     30 C21        15.2851    15.2530    67.0206 C.ar       1          -0.1858
     31 C22        16.6351    15.2366    66.8593 C.ar       1          -0.0584
     32 C23        17.1950    15.6105    65.6239 C.ar       1          -0.0859
     33 C24        18.5840    15.5978    65.4249 C.ar       1          -0.0430
     34 H3         19.9180    12.0070    64.8990 H          1           0.4142
     35 H4         19.2513    13.5329    64.6764 H          1           0.4162
     36 H5         24.0112    18.1172    64.0615 H          1           0.1075
     37 H6         24.6278    16.8953    62.9237 H          1           0.1007
     38 H7         22.4913    18.9857    62.3027 H          1           0.0960
     39 H8         23.8692    16.8800    60.5717 H          1           0.0931
     40 H9         22.1531    16.8930    61.0468 H          1           0.1125
     41 H10        22.4496    17.7970    58.7562 H          1           0.1343
     42 H11        21.8416    19.0495    59.8644 H          1           0.1287
     43 H12        24.9723    20.8061    60.1774 H          1           0.1367
     44 H13        23.2620    20.7436    60.6645 H          1           0.1309
     45 H14        24.7374    19.9756    62.5027 H          1           0.1182
     46 H15        25.4076    18.7150    61.4384 H          1           0.0938
     47 H16        24.3906    12.4662    64.1413 H          1           0.2072
     48 H17        18.6632    16.6506    62.2003 H          1           0.1308
     49 H18        16.2523    16.6736    62.5103 H          1           0.1382
     50 H19        14.2890    16.3014    63.9610 H          1           0.1399
     51 H20        12.7869    13.9801    67.4732 H          1           0.1267
     52 H21        12.4430    13.7244    64.3662 H          1           0.1056
     53 H22        12.2791    12.3559    65.5917 H          1           0.1077
     54 H23        10.3897    13.6050    66.7338 H          1           0.1104
     55 H24        10.5536    14.9734    65.5082 H          1           0.1067
     56 H25        14.8586    14.9656    67.9704 H          1           0.1383
     57 H26        17.2751    14.9380    67.6763 H          1           0.1359
     58 H27        19.2456    15.2983    66.2242 H          1           0.1333
@<TRIPOS>BOND
     1    1    2 1
     2    1   34 1
     3    1   35 1
     4    2   19 ar
     5    2    3 ar
     6    3   16 ar
     7    3    4 1
     8    4    5 2
     9    4   20 1
    10    5    6 1
    11    6    7 1
    12    6   16 1
    13    7    8 1
    14    7   36 1
    15    7   37 1
    16    8   15 1
    17    8    9 1
    18    8   38 1
    19    9   10 1
    20    9   39 1
    21    9   40 1
    22   10   11 1
    23   10   41 1
    24   10   42 1
    25   11   12 1
    26   11   13 1
    27   11   14 1
    28   14   15 1
    29   14   43 1
    30   14   44 1
    31   15   45 1
    32   15   46 1
    33   16   17 ar
    34   17   18 ar
    35   18   19 ar
    36   18   47 1
    37   20   33 ar
    38   20   21 ar
    39   21   22 ar
    40   21   48 1
    41   22   23 ar
    42   22   49 1
    43   23   32 ar
    44   23   24 ar
    45   24   25 ar
    46   24   50 1
    47   25   26 1
    48   25   30 ar
    49   26   27 1
    50   27   29 1
    51   27   28 1
    52   27   51 1
    53   28   29 1
    54   28   52 1
    55   28   53 1
    56   29   54 1
    57   29   55 1
    58   30   31 ar
    59   30   56 1
    60   31   32 ar
    61   31   57 1
    62   32   33 ar
    63   33   58 1
##########                 Name:                 1514
##########          Protonation:                   86
##########               SMILES:   c1cc(cc2c1cc(cc2)OC3CC3)c4c5c(ncnc5n(n4)CC6CC[NH2+]CC6)N
##########            Long Name:   )-2-naphthyl]-1-(piperidin-1-ium-4-ylmethyl)pyrazolo[3,4-d]pyrimidin-4-amine
##########          FlexRecCode: 1
##########               Number:                  188
##########   Ligand Source File: /raid1/people/rgc/Examples/tdt/part3/ligand22set/build/ligand22set-0000001.db2.g
##########           GlobalRank: 6
##########                 Rank:                    1
##########               Setnum:                   33
##########             Matchnum:                34423
##########                Cloud:                    1
##########        Electrostatic:           -28.534058
##########        Van der Waals:           -29.937649
##########  Ligand Polar Desolv:            15.416235
########## Ligand Apolar Desolv:            -5.684042
##########      Internal Energy:             0.000000
##########      Receptor Energy: 0.0
########## Receptor Desolvation:             0.000000
########## Receptor Hydrophobic:             0.000000
##########         Total Energy: -48.74
##########        Ligand Charge:             1.000000
##########            Arbitrary:    +999.9990
##########     heavy atom count:   31
##########           pose count:   10
##########        Ligand Energy:             0.000000
# num electro vdwattr vdwrepu polsolv apolsol rdesolv rhydroe totalscore fullpol fullapo
#   1   -2.55   -3.36    2.64   -4.22    0.51    0.00    0.00      -6.98   -6.67    0.80
#   2    2.29   -2.49    0.91    1.76   -1.31    0.00    0.00       1.15    2.88   -2.15
#   3   -1.39   -1.92    0.55   -1.18   -0.23    0.00    0.00      -4.16   -2.27   -0.44
#   4    1.55   -2.21    1.04    0.57   -0.36    0.00    0.00       0.59    1.19   -0.75
#   5   -1.14   -2.35    1.09   -0.97    0.50    0.00    0.00      -2.86   -2.09    1.09
#   6    0.06   -1.60    0.25   -1.57    0.42    0.00    0.00      -2.45   -3.66    0.98
#   7   -0.71   -1.05    0.19    0.66   -0.17    0.00    0.00      -1.08    1.69   -0.43
#   8    1.18   -0.63    0.03   -0.78   -0.06    0.00    0.00      -0.25   -2.04   -0.15
#   9    1.66   -1.45    0.47   -1.41   -0.09    0.00    0.00      -0.84   -3.32   -0.22
#  10    0.12   -1.58    0.76    0.35   -0.20    0.00    0.00      -0.55    0.81   -0.47
#  11   10.67   -1.55    0.31   -8.32    0.46    0.00    0.00       1.57  -16.13    0.89
#  12   -6.48   -0.03    0.00    6.62    0.22    0.00    0.00       0.34   16.80    0.56
#  13  -11.75   -0.06    0.00    7.75    0.25    0.00    0.00      -3.81   17.91    0.57
#  14    0.10   -1.32    0.29    0.30   -0.22    0.00    0.00      -0.86    0.62   -0.47
#  15    1.60   -0.93    0.25   -1.39   -0.09    0.00    0.00      -0.56   -3.51   -0.22
#  16    0.48   -1.89    0.52    1.07   -1.00    0.00    0.00      -0.82    2.35   -2.20
#  17    0.18   -2.36    1.08   -1.85    0.98    0.00    0.00      -1.96   -3.93    2.09
#  18    0.08   -3.92    3.63    1.29   -1.68    0.00    0.00      -0.59    2.43   -3.16
#  19   -2.77   -4.27    2.94   -2.00    1.25    0.00    0.00      -4.85   -3.33    2.08
#  20   -0.77   -2.27    0.81   -0.19   -0.20    0.00    0.00      -2.62   -0.35   -0.37
#  21   -1.77   -3.33    3.30   -0.42   -0.19    0.00    0.00      -2.41   -0.74   -0.34
#  22   -1.74   -3.55    1.62   -0.53   -0.27    0.00    0.00      -4.46   -0.89   -0.45
#  23    0.02   -2.64    0.82   -0.10   -0.24    0.00    0.00      -2.14   -0.17   -0.40
#  24   -2.26   -2.67    0.84   -0.52   -0.28    0.00    0.00      -4.91   -0.85   -0.46
#  25    1.77   -2.36    0.53    0.24   -0.20    0.00    0.00      -0.03    0.36   -0.31
#  26   -2.81   -1.89    0.30   -0.58    0.60    0.00    0.00      -4.37   -0.87    0.91
#  27   -0.06   -2.44    1.44   -0.09   -0.16    0.00    0.00      -1.31   -0.14   -0.26
#  28   -1.34   -2.92    3.85   -0.67   -0.27    0.00    0.00      -1.35   -1.10   -0.44
#  29   -1.10   -2.25    1.69   -0.66   -0.28    0.00    0.00      -2.60   -1.03   -0.44
#  30   -1.54   -3.52    1.65   -0.87   -0.28    0.00    0.00      -4.56   -1.33   -0.43
#  31   -0.48   -3.52    1.63   -0.29   -0.31    0.00    0.00      -2.98   -0.44   -0.46
#  32   -1.17   -2.36    0.47   -0.48   -0.26    0.00    0.00      -3.80   -0.73   -0.40
#  33   -0.53   -2.61    1.05   -0.25   -0.27    0.00    0.00      -2.60   -0.42   -0.45
#  34   -0.38   -0.08    0.01    2.38    0.35    0.00    0.00       2.27    3.98    0.59
#  35    1.84   -0.03    0.00    1.70    0.17    0.00    0.00       3.68    3.76    0.37
#  36   -0.45   -0.77    0.46    0.49   -0.11    0.00    0.00      -0.38    1.20   -0.28
#  37   -0.55   -0.25    0.04    0.44   -0.06    0.00    0.00      -0.38    2.13   -0.28
#  38   -1.14   -0.14    0.00    0.11   -0.03    0.00    0.00      -1.20    0.89   -0.28
#  39   -0.63   -0.53    0.17    1.07   -0.11    0.00    0.00      -0.04    2.68   -0.28
#  40   -1.19   -0.88    0.68    0.09   -0.09    0.00    0.00      -1.39    0.24   -0.24
#  41   -3.13   -1.34    2.99    2.20   -0.13    0.00    0.00       0.59    4.89   -0.28
#  42   -2.99   -0.32    0.06    1.05   -0.09    0.00    0.00      -2.28    3.42   -0.28
#  43   -3.28   -0.80    0.61    3.02   -0.14    0.00    0.00      -0.59    6.05   -0.28
#  44   -3.62   -0.50    0.19    1.44   -0.11    0.00    0.00      -2.60    3.78   -0.28
#  45   -1.24   -0.46    0.32    0.54   -0.08    0.00    0.00      -0.92    1.92   -0.28
#  46   -0.59   -0.30    0.10    0.89   -0.07    0.00    0.00       0.03    3.38   -0.28
#  47   -0.55   -1.02    1.11    1.23   -0.14    0.00    0.00       0.64    2.55   -0.28
#  48    1.43   -0.72    0.57    0.70   -0.12    0.00    0.00       1.87    1.50   -0.25
#  49    1.08   -1.28    1.36    1.06   -0.18    0.00    0.00       2.05    1.69   -0.28
#  50    1.30   -0.70    0.39    0.34   -0.15    0.00    0.00       1.18    0.65   -0.28
#  51    0.84   -1.40    2.22    0.80   -0.12    0.00    0.00       2.33    1.30   -0.20
#  52    0.90   -0.98    3.23    0.16   -0.12    0.00    0.00       3.18    0.38   -0.28
#  53    0.80   -1.82    4.56    0.67   -0.17    0.00    0.00       4.04    1.14   -0.28
#  54    0.67   -1.38    3.39    0.65   -0.17    0.00    0.00       3.17    1.07   -0.28
#  55    0.64   -0.43    0.12    0.18   -0.15    0.00    0.00       0.36    0.34   -0.28
#  56    0.52   -1.13    0.89    0.87   -0.12    0.00    0.00       1.04    1.43   -0.19
#  57    0.56   -1.01    0.53    1.26   -0.18    0.00    0.00       1.16    1.98   -0.28
#  58    1.25   -0.96    1.69    0.75   -0.14    0.00    0.00       2.58    1.46   -0.28

@<TRIPOS>MOLECULE
             1514        86
   58    63     0     0     0



@<TRIPOS>ATOM
      1 N1         20.0243    12.9470    64.6845 N.pl3      1          -0.8252
      2 C1         21.2772    13.4524    64.3963 C.ar       1           0.5218
      3 C2         21.4524    14.8125    64.0918 C.ar       1          -0.3250
      4 C3         20.5657    15.9710    63.9844 C.2        1           0.1912
      5 N2         21.3084    17.0040    63.6634 N.2        1          -0.2485
      6 N3         22.6457    16.6106    63.5476 N.pl3      1          -0.3884
      7 C4         23.7614    17.4952    63.2022 C.3        1           0.1492
      8 C5         23.3594    18.3875    62.0262 C.3        1          -0.1198
      9 C6         22.4987    19.5476    62.5344 C.3        1          -0.1425
     10 C7         22.0346    20.3906    61.3447 C.3        1          -0.0058
     11 N4         21.2453    19.5582    60.4289 N.4        1          -0.5053
     12 H1         20.4679    19.1537    60.9291 H          1           0.4283
     13 H2         20.8971    20.1287    59.6729 H          1           0.4323
     14 C8         22.0847    18.4855    59.8820 C.3        1          -0.0046
     15 C9         22.5507    17.5691    61.0155 C.3        1          -0.1406
     16 C10        22.7499    15.2762    63.8061 C.ar       1           0.3770
     17 N5         23.7601    14.4068    63.8361 N.ar       1          -0.5792
     18 C11        23.5485    13.1421    64.1267 C.ar       1           0.3924
     19 N6         22.3483    12.6650    64.4054 N.ar       1          -0.5988
     20 C12        19.0993    15.9767    64.1987 C.ar       1          -0.0530
     21 C13        18.2439    16.3615    63.1527 C.ar       1          -0.1005
     22 C14        16.8969    16.3751    63.3237 C.ar       1          -0.1024
     23 C15        16.3412    16.0007    64.5610 C.ar       1           0.0013
     24 C16        14.9514    16.0063    64.7613 C.ar       1          -0.1604
     25 C17        14.4413    15.6373    65.9736 C.ar       1           0.1505
     26 O1         13.0960    15.6433    66.1648 O.3        1          -0.2797
     27 C18        12.4848    14.3997    66.5136 C.3        1          -0.0074
     28 C19        12.1783    13.4202    65.3790 C.3        1          -0.1809
     29 C20        11.0387    14.1736    66.0678 C.3        1          -0.1664
     30 C21        15.2851    15.2530    67.0206 C.ar       1          -0.1858
     31 C22        16.6351    15.2366    66.8593 C.ar       1          -0.0584
     32 C23        17.1950    15.6105    65.6239 C.ar       1          -0.0859
     33 C24        18.5840    15.5978    65.4249 C.ar       1          -0.0430
     34 H3         19.9180    12.0070    64.8990 H          1           0.4142
     35 H4         19.2513    13.5329    64.6764 H          1           0.4162
     36 H5         24.0112    18.1172    64.0615 H          1           0.1075
     37 H6         24.6278    16.8953    62.9237 H          1           0.1007
     38 H7         24.2546    18.7803    61.5441 H          1           0.0960
     39 H8         21.6301    19.1527    63.0615 H          1           0.0931
     40 H9         23.0861    20.1670    63.2122 H          1           0.1125
     41 H10        21.4215    21.2176    61.7030 H          1           0.1343
     42 H11        22.9038    20.7852    60.8184 H          1           0.1287
     43 H12        21.5087    17.9060    59.1605 H          1           0.1367
     44 H13        22.9527    18.9208    59.3870 H          1           0.1309
     45 H14        23.1752    16.7745    60.6076 H          1           0.1182
     46 H15        21.6833    17.1333    61.5110 H          1           0.0938
     47 H16        24.3906    12.4662    64.1413 H          1           0.2072
     48 H17        18.6632    16.6506    62.2003 H          1           0.1308
     49 H18        16.2523    16.6736    62.5103 H          1           0.1382
     50 H19        14.2890    16.3014    63.9610 H          1           0.1399
     51 H20        12.7869    13.9801    67.4732 H          1           0.1267
     52 H21        12.4430    13.7244    64.3662 H          1           0.1056
     53 H22        12.2791    12.3559    65.5917 H          1           0.1077
     54 H23        10.3897    13.6050    66.7338 H          1           0.1104
     55 H24        10.5536    14.9734    65.5082 H          1           0.1067
     56 H25        14.8586    14.9656    67.9704 H          1           0.1383
     57 H26        17.2751    14.9380    67.6763 H          1           0.1359
     58 H27        19.2456    15.2983    66.2242 H          1           0.1333
@<TRIPOS>BOND
     1    1    2 1
     2    1   34 1
     3    1   35 1
     4    2   19 ar
     5    2    3 ar
     6    3   16 ar
     7    3    4 1
     8    4    5 2
     9    4   20 1
    10    5    6 1
    11    6    7 1
    12    6   16 1
    13    7    8 1
    14    7   36 1
    15    7   37 1
    16    8   15 1
    17    8    9 1
    18    8   38 1
    19    9   10 1
    20    9   39 1
    21    9   40 1
    22   10   11 1
    23   10   41 1
    24   10   42 1
    25   11   12 1
    26   11   13 1
    27   11   14 1
    28   14   15 1
    29   14   43 1
    30   14   44 1
    31   15   45 1
    32   15   46 1
    33   16   17 ar
    34   17   18 ar
    35   18   19 ar
    36   18   47 1
    37   20   33 ar
    38   20   21 ar
    39   21   22 ar
    40   21   48 1
    41   22   23 ar
    42   22   49 1
    43   23   32 ar
    44   23   24 ar
    45   24   25 ar
    46   24   50 1
    47   25   26 1
    48   25   30 ar
    49   26   27 1
    50   27   29 1
    51   27   28 1
    52   27   51 1
    53   28   29 1
    54   28   52 1
    55   28   53 1
    56   29   54 1
    57   29   55 1
    58   30   31 ar
    59   30   56 1
    60   31   32 ar
    61   31   57 1
    62   32   33 ar
    63   33   58 1
##########                 Name:                 1514
##########          Protonation:                   86
##########               SMILES:   c1cc(cc2c1cc(cc2)OC3CC3)c4c5c(ncnc5n(n4)CC6CC[NH2+]CC6)N
##########            Long Name:   )-2-naphthyl]-1-(piperidin-1-ium-4-ylmethyl)pyrazolo[3,4-d]pyrimidin-4-amine
##########          FlexRecCode: 1
##########               Number:                  180
##########   Ligand Source File: /raid1/people/rgc/Examples/tdt/part3/ligand22set/build/ligand22set-0000001.db2.g
##########           GlobalRank: 6
##########                 Rank:                    2
##########               Setnum:                    9
##########             Matchnum:                11246
##########                Cloud:                    1
##########        Electrostatic:           -33.151657
##########        Van der Waals:           -22.682444
##########  Ligand Polar Desolv:            13.392804
########## Ligand Apolar Desolv:            -5.574817
##########      Internal Energy:             0.000000
##########      Receptor Energy: 0.0
########## Receptor Desolvation:             0.000000
########## Receptor Hydrophobic:             0.000000
##########         Total Energy: -48.02
##########        Ligand Charge:             1.000000
##########            Arbitrary:    +999.9990
##########     heavy atom count:   31
##########           pose count:   10
##########        Ligand Energy:             0.000000
# num electro vdwattr vdwrepu polsolv apolsol rdesolv rhydroe totalscore fullpol fullapo
#   1   -2.50   -2.46    0.47   -4.24    0.51    0.00    0.00      -8.22   -6.67    0.80
#   2    1.86   -1.96    0.39    1.73   -1.30    0.00    0.00       0.73    2.88   -2.15
#   3   -1.27   -1.65    0.40   -1.17   -0.23    0.00    0.00      -3.91   -2.27   -0.44
#   4    1.78   -1.99    0.62    0.57   -0.36    0.00    0.00       0.63    1.19   -0.75
#   5   -1.66   -2.75    1.80   -0.97    0.51    0.00    0.00      -3.08   -2.09    1.09
#   6    0.04   -1.53    0.22   -1.60    0.43    0.00    0.00      -2.43   -3.66    0.98
#   7   -0.73   -1.02    0.13    0.70   -0.18    0.00    0.00      -1.10    1.69   -0.43
#   8    1.29   -0.82    0.07   -0.83   -0.06    0.00    0.00      -0.34   -2.04   -0.15
#   9    2.13   -0.76    0.07   -1.39   -0.09    0.00    0.00      -0.04   -3.32   -0.22
#  10    0.15   -1.43    0.46    0.38   -0.22    0.00    0.00      -0.67    0.81   -0.47
#  11   14.63   -2.47    2.42   -6.44    0.36    0.00    0.00       8.49  -16.13    0.89
#  12  -13.57   -0.07    0.01    5.04    0.17    0.00    0.00      -8.41   16.80    0.56
#  13  -14.59   -0.11    0.01    7.66    0.24    0.00    0.00      -6.78   17.91    0.57
#  14    0.09   -1.09    0.35    0.22   -0.17    0.00    0.00      -0.59    0.62   -0.47
#  15    1.77   -0.91    0.16   -1.19   -0.07    0.00    0.00      -0.24   -3.51   -0.22
#  16    0.23   -1.55    0.33    1.02   -0.95    0.00    0.00      -0.92    2.35   -2.20
#  17    0.86   -1.61    0.29   -1.74    0.93    0.00    0.00      -1.27   -3.93    2.09
#  18   -0.88   -2.82    1.58    1.23   -1.60    0.00    0.00      -2.49    2.43   -3.16
#  19   -1.80   -3.14    1.03   -1.98    1.24    0.00    0.00      -4.65   -3.33    2.08
#  20   -0.81   -2.16    0.68   -0.19   -0.20    0.00    0.00      -2.68   -0.35   -0.37
#  21   -1.31   -3.24    1.88   -0.42   -0.19    0.00    0.00      -3.29   -0.74   -0.34
#  22   -1.29   -4.15    2.84   -0.53   -0.27    0.00    0.00      -3.40   -0.89   -0.45
#  23    0.02   -2.73    0.95   -0.10   -0.24    0.00    0.00      -2.10   -0.17   -0.40
#  24   -1.92   -2.98    2.08   -0.51   -0.28    0.00    0.00      -3.60   -0.85   -0.46
#  25    1.71   -2.30    0.56    0.24   -0.20    0.00    0.00       0.00    0.36   -0.31
#  26   -2.65   -1.87    0.32   -0.57    0.59    0.00    0.00      -4.18   -0.87    0.91
#  27   -0.06   -1.76    0.80   -0.09   -0.17    0.00    0.00      -1.27   -0.14   -0.26
#  28   -1.19   -1.26    0.18   -0.72   -0.29    0.00    0.00      -3.27   -1.10   -0.44
#  29   -1.03   -1.84    0.83   -0.65   -0.28    0.00    0.00      -2.96   -1.03   -0.44
#  30   -2.05   -3.74    3.09   -0.88   -0.28    0.00    0.00      -3.86   -1.33   -0.43
#  31   -0.74   -4.52    6.52   -0.29   -0.30    0.00    0.00       0.68   -0.44   -0.46
#  32   -1.33   -2.47    0.64   -0.48   -0.26    0.00    0.00      -3.91   -0.73   -0.40
#  33   -0.64   -2.59    0.88   -0.25   -0.27    0.00    0.00      -2.87   -0.42   -0.45
#  34   -0.15   -0.06    0.00    2.49    0.37    0.00    0.00       2.66    3.98    0.59
#  35    1.94   -0.03    0.00    1.74    0.17    0.00    0.00       3.82    3.76    0.37
#  36   -0.35   -0.68    0.23    0.52   -0.12    0.00    0.00      -0.40    1.20   -0.28
#  37   -0.63   -0.22    0.03    0.43   -0.06    0.00    0.00      -0.45    2.13   -0.28
#  38   -1.02   -0.43    0.10    0.32   -0.10    0.00    0.00      -1.14    0.89   -0.28
#  39   -1.37   -0.23    0.03    0.66   -0.07    0.00    0.00      -0.98    2.68   -0.28
#  40   -1.21   -0.28    0.05    0.07   -0.07    0.00    0.00      -1.43    0.24   -0.24
#  41   -4.15   -0.85    0.62    2.32   -0.13    0.00    0.00      -2.20    4.89   -0.28
#  42   -3.08   -0.40    0.09    1.29   -0.11    0.00    0.00      -2.20    3.42   -0.28
#  43   -2.11   -0.21    0.03    1.29   -0.06    0.00    0.00      -1.06    6.05   -0.28
#  44   -3.42   -0.86    1.68    1.33   -0.10    0.00    0.00      -1.37    3.78   -0.28
#  45   -1.00   -0.61    0.29    0.61   -0.09    0.00    0.00      -0.80    1.92   -0.28
#  46   -1.02   -0.14    0.01    0.48   -0.04    0.00    0.00      -0.72    3.38   -0.28
#  47   -1.78   -1.33    4.84    1.11   -0.12    0.00    0.00       2.72    2.55   -0.28
#  48    1.01   -1.17    2.27    0.77   -0.13    0.00    0.00       2.76    1.50   -0.25
#  49    1.40   -2.02    6.80    1.08   -0.18    0.00    0.00       7.08    1.69   -0.28
#  50    1.45   -0.65    0.33    0.33   -0.14    0.00    0.00       1.30    0.65   -0.28
#  51    0.95   -1.27    3.06    0.67   -0.10    0.00    0.00       3.30    1.30   -0.20
#  52    0.65   -0.49    0.11    0.19   -0.14    0.00    0.00       0.32    0.38   -0.28
#  53    0.70   -0.35    0.05    0.49   -0.12    0.00    0.00       0.77    1.14   -0.28
#  54    0.67   -0.97    1.16    0.62   -0.16    0.00    0.00       1.32    1.07   -0.28
#  55    0.63   -0.87    1.76    0.19   -0.15    0.00    0.00       1.55    0.34   -0.28
#  56    1.18   -1.12    0.91    0.85   -0.11    0.00    0.00       1.71    1.43   -0.19
#  57    1.36   -1.71    3.98    1.22   -0.17    0.00    0.00       4.67    1.98   -0.28
#  58    1.65   -1.01    1.55    0.77   -0.15    0.00    0.00       2.81    1.46   -0.28

@<TRIPOS>MOLECULE
             1514        86
   58    63     0     0     0



@<TRIPOS>ATOM
      1 N1         19.9128    12.9420    63.8385 N.pl3      1          -0.8252
      2 C1         21.1289    13.5646    63.6338 C.ar       1           0.5218
      3 C2         21.2220    14.9655    63.5890 C.ar       1          -0.3250
      4 C3         20.2709    16.0699    63.7140 C.2        1           0.1912
      5 N2         20.9480    17.1864    63.5835 N.2        1          -0.2485
      6 N3         22.3017    16.9002    63.3775 N.pl3      1          -0.3884
      7 C4         23.3585    17.8973    63.1901 C.3        1           0.1492
      8 C5         22.8800    18.9694    62.2090 C.3        1          -0.1198
      9 C6         22.5570    18.3212    60.8596 C.3        1          -0.1425
     10 C7         22.1556    19.4086    59.8607 C.3        1          -0.0058
     11 N4         23.2617    20.3594    59.6962 N.4        1          -0.5053
     12 H1         24.0889    19.8636    59.3999 H          1           0.4283
     13 H2         23.0136    21.0449    58.9985 H          1           0.4323
     14 C8         23.5294    21.0373    60.9704 C.3        1          -0.0046
     15 C9         23.9837    20.0125    62.0120 C.3        1          -0.1406
     16 C10        22.4849    15.5493    63.3783 C.ar       1           0.3770
     17 N5         23.5415    14.7502    63.2302 N.ar       1          -0.5792
     18 C11        23.4065    13.4432    63.2799 C.ar       1           0.3924
     19 N6         22.2413    12.8532    63.4798 N.ar       1          -0.5988
     20 C12        18.8120    15.9499    63.9453 C.ar       1          -0.0530
     21 C13        17.9378    15.8614    62.8491 C.ar       1          -0.1005
     22 C14        16.5972    15.7507    63.0344 C.ar       1          -0.1024
     23 C15        16.0673    15.7235    64.3377 C.ar       1           0.0013
     24 C16        14.6846    15.6091    64.5543 C.ar       1          -0.1604
     25 C17        14.1998    15.5850    65.8311 C.ar       1           0.1505
     26 O1         12.8614    15.4737    66.0379 O.3        1          -0.2797
     27 C18        12.2201    14.3055    65.5225 C.3        1          -0.0074
     28 C19        11.2509    14.4895    64.3530 C.3        1          -0.1809
     29 C20        10.7130    14.1687    65.7489 C.3        1          -0.1664
     30 C21        15.0623    15.6727    66.9283 C.ar       1          -0.1858
     31 C22        16.4061    15.7843    66.7530 C.ar       1          -0.0584
     32 C23        16.9402    15.8122    65.4517 C.ar       1          -0.0859
     33 C24        18.3230    15.9203    65.2386 C.ar       1          -0.0430
     34 H3         19.8634    11.9739    63.8732 H          1           0.4142
     35 H4         19.1090    13.4730    63.9515 H          1           0.4162
     36 H5         23.5948    18.3607    64.1479 H          1           0.1075
     37 H6         24.2495    17.4118    62.7917 H          1           0.1007
     38 H7         21.9874    19.4535    62.6050 H          1           0.0960
     39 H8         23.4360    17.7936    60.4896 H          1           0.0931
     40 H9         21.7338    17.6173    60.9817 H          1           0.1125
     41 H10        21.9248    18.9505    58.8989 H          1           0.1343
     42 H11        21.2762    19.9354    60.2316 H          1           0.1287
     43 H12        24.3128    21.7816    60.8278 H          1           0.1367
     44 H13        22.6208    21.5293    61.3175 H          1           0.1309
     45 H14        24.1802    20.5176    62.9577 H          1           0.1182
     46 H15        24.8923    19.5201    61.6658 H          1           0.0938
     47 H16        24.2845    12.8269    63.1554 H          1           0.2072
     48 H17        18.3371    15.8820    61.8458 H          1           0.1308
     49 H18        15.9379    15.6838    62.1818 H          1           0.1382
     50 H19        14.0078    15.5408    63.7155 H          1           0.1399
     51 H20        12.8169    13.3936    65.5432 H          1           0.1267
     52 H21        11.1024    15.5017    63.9768 H          1           0.1056
     53 H22        11.2101    13.6986    63.6039 H          1           0.1077
     54 H23        10.3185    13.1669    65.9182 H          1           0.1104
     55 H24        10.2109    14.9698    66.2911 H          1           0.1067
     56 H25        14.6557    15.6518    67.9287 H          1           0.1383
     57 H26        17.0609    15.8515    67.6092 H          1           0.1359
     58 H27        18.9996    15.9839    66.0779 H          1           0.1333
@<TRIPOS>BOND
     1    1    2 1
     2    1   34 1
     3    1   35 1
     4    2   19 ar
     5    2    3 ar
     6    3   16 ar
     7    3    4 1
     8    4    5 2
     9    4   20 1
    10    5    6 1
    11    6    7 1
    12    6   16 1
    13    7    8 1
    14    7   36 1
    15    7   37 1
    16    8   15 1
    17    8    9 1
    18    8   38 1
    19    9   10 1
    20    9   39 1
    21    9   40 1
    22   10   11 1
    23   10   41 1
    24   10   42 1
    25   11   12 1
    26   11   13 1
    27   11   14 1
    28   14   15 1
    29   14   43 1
    30   14   44 1
    31   15   45 1
    32   15   46 1
    33   16   17 ar
    34   17   18 ar
    35   18   19 ar
    36   18   47 1
    37   20   33 ar
    38   20   21 ar
    39   21   22 ar
    40   21   48 1
    41   22   23 ar
    42   22   49 1
    43   23   32 ar
    44   23   24 ar
    45   24   25 ar
    46   24   50 1
    47   25   26 1
    48   25   30 ar
    49   26   27 1
    50   27   29 1
    51   27   28 1
    52   27   51 1
    53   28   29 1
    54   28   52 1
    55   28   53 1
    56   29   54 1
    57   29   55 1
    58   30   31 ar
    59   30   56 1
    60   31   32 ar
    61   31   57 1
    62   32   33 ar
    63   33   58 1
##########                 Name:                 1514
##########          Protonation:                   86
##########               SMILES:   c1cc(cc2c1cc(cc2)OC3CC3)c4c5c(ncnc5n(n4)CC6CC[NH2+]CC6)N
##########            Long Name:   )-2-naphthyl]-1-(piperidin-1-ium-4-ylmethyl)pyrazolo[3,4-d]pyrimidin-4-amine
##########          FlexRecCode: 1
##########               Number:                  186
##########   Ligand Source File: /raid1/people/rgc/Examples/tdt/part3/ligand22set/build/ligand22set-0000001.db2.g
##########           GlobalRank: 6
##########                 Rank:                    2
##########               Setnum:                  272
##########             Matchnum:                34423
##########                Cloud:                    1
##########        Electrostatic:           -27.957088
##########        Van der Waals:           -26.385941
##########  Ligand Polar Desolv:            12.168328
########## Ligand Apolar Desolv:            -5.731234
##########      Internal Energy:             0.000000
##########      Receptor Energy: 0.0
########## Receptor Desolvation:             0.000000
########## Receptor Hydrophobic:             0.000000
##########         Total Energy: -47.91
##########        Ligand Charge:             1.000000
##########            Arbitrary:    +999.9990
##########     heavy atom count:   31
##########           pose count:   10
##########        Ligand Energy:             0.000000
# num electro vdwattr vdwrepu polsolv apolsol rdesolv rhydroe totalscore fullpol fullapo
#   1   -2.55   -3.36    2.64   -4.22    0.51    0.00    0.00      -6.98   -6.67    0.80
#   2    2.29   -2.49    0.91    1.76   -1.31    0.00    0.00       1.15    2.88   -2.15
#   3   -1.39   -1.92    0.55   -1.18   -0.23    0.00    0.00      -4.16   -2.27   -0.44
#   4    1.55   -2.21    1.04    0.57   -0.36    0.00    0.00       0.59    1.19   -0.75
#   5   -1.14   -2.35    1.09   -0.97    0.50    0.00    0.00      -2.86   -2.09    1.09
#   6    0.06   -1.60    0.25   -1.57    0.42    0.00    0.00      -2.45   -3.66    0.98
#   7   -0.71   -1.05    0.19    0.66   -0.17    0.00    0.00      -1.08    1.69   -0.43
#   8    1.18   -0.63    0.03   -0.78   -0.06    0.00    0.00      -0.25   -2.04   -0.15
#   9    1.74   -0.51    0.02   -0.95   -0.06    0.00    0.00       0.24   -3.32   -0.22
#  10    0.12   -0.99    0.43    0.26   -0.15    0.00    0.00      -0.32    0.81   -0.47
#  11   10.93   -1.37    0.40   -5.76    0.32    0.00    0.00       4.51  -16.13    0.89
#  12   -6.98   -0.03    0.00    4.02    0.13    0.00    0.00      -2.86   16.80    0.56
#  13  -11.19   -0.04    0.00    5.96    0.19    0.00    0.00      -5.08   17.91    0.57
#  14    0.10   -1.66    1.00    0.27   -0.20    0.00    0.00      -0.50    0.62   -0.47
#  15    1.64   -1.46    0.47   -1.49   -0.09    0.00    0.00      -0.94   -3.51   -0.22
#  16    0.48   -1.89    0.52    1.07   -1.00    0.00    0.00      -0.82    2.35   -2.20
#  17    0.18   -2.36    1.08   -1.85    0.98    0.00    0.00      -1.96   -3.93    2.09
#  18    0.08   -3.92    3.63    1.29   -1.68    0.00    0.00      -0.59    2.43   -3.16
#  19   -2.77   -4.27    2.94   -2.00    1.25    0.00    0.00      -4.85   -3.33    2.08
#  20   -0.77   -2.27    0.81   -0.19   -0.20    0.00    0.00      -2.62   -0.35   -0.37
#  21   -1.77   -3.33    3.30   -0.42   -0.19    0.00    0.00      -2.41   -0.74   -0.34
#  22   -1.74   -3.55    1.62   -0.53   -0.27    0.00    0.00      -4.46   -0.89   -0.45
#  23    0.02   -2.64    0.82   -0.10   -0.24    0.00    0.00      -2.14   -0.17   -0.40
#  24   -2.26   -2.67    0.84   -0.52   -0.28    0.00    0.00      -4.91   -0.85   -0.46
#  25    1.77   -2.36    0.53    0.24   -0.20    0.00    0.00      -0.03    0.36   -0.31
#  26   -2.81   -1.89    0.30   -0.58    0.60    0.00    0.00      -4.37   -0.87    0.91
#  27   -0.06   -2.44    1.44   -0.09   -0.16    0.00    0.00      -1.31   -0.14   -0.26
#  28   -1.34   -2.92    3.85   -0.67   -0.27    0.00    0.00      -1.35   -1.10   -0.44
#  29   -1.10   -2.25    1.69   -0.66   -0.28    0.00    0.00      -2.60   -1.03   -0.44
#  30   -1.54   -3.52    1.65   -0.87   -0.28    0.00    0.00      -4.56   -1.33   -0.43
#  31   -0.48   -3.52    1.63   -0.29   -0.31    0.00    0.00      -2.98   -0.44   -0.46
#  32   -1.17   -2.36    0.47   -0.48   -0.26    0.00    0.00      -3.80   -0.73   -0.40
#  33   -0.53   -2.61    1.05   -0.25   -0.27    0.00    0.00      -2.60   -0.42   -0.45
#  34   -0.38   -0.08    0.01    2.38    0.35    0.00    0.00       2.27    3.98    0.59
#  35    1.84   -0.03    0.00    1.70    0.17    0.00    0.00       3.68    3.76    0.37
#  36   -0.45   -0.77    0.46    0.49   -0.11    0.00    0.00      -0.38    1.20   -0.28
#  37   -0.55   -0.25    0.04    0.44   -0.06    0.00    0.00      -0.38    2.13   -0.28
#  38   -1.05   -0.18    0.01    0.16   -0.05    0.00    0.00      -1.11    0.89   -0.28
#  39   -0.82   -0.18    0.02    0.43   -0.05    0.00    0.00      -0.59    2.68   -0.28
#  40   -1.20   -0.12    0.00    0.03   -0.03    0.00    0.00      -1.32    0.24   -0.24
#  41   -2.81   -0.38    0.31    0.93   -0.05    0.00    0.00      -1.99    4.89   -0.28
#  42   -3.73   -0.59    0.56    1.12   -0.09    0.00    0.00      -2.73    3.42   -0.28
#  43   -3.40   -1.57    5.28    2.67   -0.12    0.00    0.00       2.86    6.05   -0.28
#  44   -2.90   -0.32    0.04    1.31   -0.10    0.00    0.00      -1.96    3.78   -0.28
#  45   -0.85   -0.52    0.17    0.75   -0.11    0.00    0.00      -0.56    1.92   -0.28
#  46   -0.94   -0.87    0.62    1.36   -0.11    0.00    0.00       0.06    3.38   -0.28
#  47   -0.55   -1.02    1.11    1.23   -0.14    0.00    0.00       0.64    2.55   -0.28
#  48    1.43   -0.72    0.57    0.70   -0.12    0.00    0.00       1.87    1.50   -0.25
#  49    1.08   -1.28    1.36    1.06   -0.18    0.00    0.00       2.05    1.69   -0.28
#  50    1.30   -0.70    0.39    0.34   -0.15    0.00    0.00       1.18    0.65   -0.28
#  51    0.84   -1.40    2.22    0.80   -0.12    0.00    0.00       2.33    1.30   -0.20
#  52    0.90   -0.98    3.23    0.16   -0.12    0.00    0.00       3.18    0.38   -0.28
#  53    0.80   -1.82    4.56    0.67   -0.17    0.00    0.00       4.04    1.14   -0.28
#  54    0.67   -1.38    3.39    0.65   -0.17    0.00    0.00       3.17    1.07   -0.28
#  55    0.64   -0.43    0.12    0.18   -0.15    0.00    0.00       0.36    0.34   -0.28
#  56    0.52   -1.13    0.89    0.87   -0.12    0.00    0.00       1.04    1.43   -0.19
#  57    0.56   -1.01    0.53    1.26   -0.18    0.00    0.00       1.16    1.98   -0.28
#  58    1.25   -0.96    1.69    0.75   -0.14    0.00    0.00       2.58    1.46   -0.28

@<TRIPOS>MOLECULE
             1514        86
   58    63     0     0     0



@<TRIPOS>ATOM
      1 N1         20.0243    12.9470    64.6845 N.pl3      1          -0.8252
      2 C1         21.2772    13.4524    64.3963 C.ar       1           0.5218
      3 C2         21.4524    14.8125    64.0918 C.ar       1          -0.3250
      4 C3         20.5657    15.9710    63.9844 C.2        1           0.1912
      5 N2         21.3084    17.0040    63.6634 N.2        1          -0.2485
      6 N3         22.6457    16.6106    63.5476 N.pl3      1          -0.3884
      7 C4         23.7614    17.4952    63.2022 C.3        1           0.1492
      8 C5         23.3594    18.3875    62.0262 C.3        1          -0.1198
      9 C6         24.6170    18.9441    61.3525 C.3        1          -0.1425
     10 C7         24.2072    19.8977    60.2281 C.3        1          -0.0058
     11 N4         23.4174    21.0035    60.7832 N.4        1          -0.5053
     12 H1         23.9534    21.4729    61.4976 H          1           0.4283
     13 H2         23.1933    21.6574    60.0481 H          1           0.4323
     14 C8         22.1752    20.4841    61.3676 C.3        1          -0.0046
     15 C9         22.5069    19.5531    62.5357 C.3        1          -0.1406
     16 C10        22.7499    15.2762    63.8061 C.ar       1           0.3770
     17 N5         23.7601    14.4068    63.8361 N.ar       1          -0.5792
     18 C11        23.5485    13.1421    64.1267 C.ar       1           0.3924
     19 N6         22.3483    12.6650    64.4054 N.ar       1          -0.5988
     20 C12        19.0993    15.9767    64.1987 C.ar       1          -0.0530
     21 C13        18.2439    16.3615    63.1527 C.ar       1          -0.1005
     22 C14        16.8969    16.3751    63.3237 C.ar       1          -0.1024
     23 C15        16.3412    16.0007    64.5610 C.ar       1           0.0013
     24 C16        14.9514    16.0063    64.7613 C.ar       1          -0.1604
     25 C17        14.4413    15.6373    65.9736 C.ar       1           0.1505
     26 O1         13.0960    15.6433    66.1648 O.3        1          -0.2797
     27 C18        12.4848    14.3997    66.5136 C.3        1          -0.0074
     28 C19        12.1783    13.4202    65.3790 C.3        1          -0.1809
     29 C20        11.0387    14.1736    66.0678 C.3        1          -0.1664
     30 C21        15.2851    15.2530    67.0206 C.ar       1          -0.1858
     31 C22        16.6351    15.2366    66.8593 C.ar       1          -0.0584
     32 C23        17.1950    15.6105    65.6239 C.ar       1          -0.0859
     33 C24        18.5840    15.5978    65.4249 C.ar       1          -0.0430
     34 H3         19.9180    12.0070    64.8990 H          1           0.4142
     35 H4         19.2513    13.5329    64.6764 H          1           0.4162
     36 H5         24.0112    18.1172    64.0615 H          1           0.1075
     37 H6         24.6278    16.8953    62.9237 H          1           0.1007
     38 H7         22.7862    17.8044    61.3055 H          1           0.0960
     39 H8         25.2152    19.4832    62.0870 H          1           0.0931
     40 H9         25.2018    18.1228    60.9381 H          1           0.1125
     41 H10        25.1002    20.2957    59.7462 H          1           0.1343
     42 H11        23.6093    19.3574    59.4940 H          1           0.1287
     43 H12        21.5680    21.3150    61.7269 H          1           0.1367
     44 H13        21.6207    19.9315    60.6091 H          1           0.1309
     45 H14        21.5833    19.1672    62.9672 H          1           0.1182
     46 H15        23.0612    20.1049    63.2949 H          1           0.0938
     47 H16        24.3906    12.4662    64.1413 H          1           0.2072
     48 H17        18.6632    16.6506    62.2003 H          1           0.1308
     49 H18        16.2523    16.6736    62.5103 H          1           0.1382
     50 H19        14.2890    16.3014    63.9610 H          1           0.1399
     51 H20        12.7869    13.9801    67.4732 H          1           0.1267
     52 H21        12.4430    13.7244    64.3662 H          1           0.1056
     53 H22        12.2791    12.3559    65.5917 H          1           0.1077
     54 H23        10.3897    13.6050    66.7338 H          1           0.1104
     55 H24        10.5536    14.9734    65.5082 H          1           0.1067
     56 H25        14.8586    14.9656    67.9704 H          1           0.1383
     57 H26        17.2751    14.9380    67.6763 H          1           0.1359
     58 H27        19.2456    15.2983    66.2242 H          1           0.1333
@<TRIPOS>BOND
     1    1    2 1
     2    1   34 1
     3    1   35 1
     4    2   19 ar
     5    2    3 ar
     6    3   16 ar
     7    3    4 1
     8    4    5 2
     9    4   20 1
    10    5    6 1
    11    6    7 1
    12    6   16 1
    13    7    8 1
    14    7   36 1
    15    7   37 1
    16    8   15 1
    17    8    9 1
    18    8   38 1
    19    9   10 1
    20    9   39 1
    21    9   40 1
    22   10   11 1
    23   10   41 1
    24   10   42 1
    25   11   12 1
    26   11   13 1
    27   11   14 1
    28   14   15 1
    29   14   43 1
    30   14   44 1
    31   15   45 1
    32   15   46 1
    33   16   17 ar
    34   17   18 ar
    35   18   19 ar
    36   18   47 1
    37   20   33 ar
    38   20   21 ar
    39   21   22 ar
    40   21   48 1
    41   22   23 ar
    42   22   49 1
    43   23   32 ar
    44   23   24 ar
    45   24   25 ar
    46   24   50 1
    47   25   26 1
    48   25   30 ar
    49   26   27 1
    50   27   29 1
    51   27   28 1
    52   27   51 1
    53   28   29 1
    54   28   52 1
    55   28   53 1
    56   29   54 1
    57   29   55 1
    58   30   31 ar
    59   30   56 1
    60   31   32 ar
    61   31   57 1
    62   32   33 ar
    63   33   58 1
##########                 Name:                 1514
##########          Protonation:                   86
##########               SMILES:   c1cc(cc2c1cc(cc2)OC3CC3)c4c5c(ncnc5n(n4)CC6CC[NH2+]CC6)N
##########            Long Name:   )-2-naphthyl]-1-(piperidin-1-ium-4-ylmethyl)pyrazolo[3,4-d]pyrimidin-4-amine
##########          FlexRecCode: 1
##########               Number:                  186
##########   Ligand Source File: /raid1/people/rgc/Examples/tdt/part3/ligand22set/build/ligand22set-0000001.db2.g
##########           GlobalRank: 6
##########                 Rank:                    3
##########               Setnum:                  163
##########             Matchnum:                34423
##########                Cloud:                    1
##########        Electrostatic:           -34.167973
##########        Van der Waals:           -20.750023
##########  Ligand Polar Desolv:            12.972935
########## Ligand Apolar Desolv:            -5.601767
##########      Internal Energy:             0.000000
##########      Receptor Energy: 0.0
########## Receptor Desolvation:             0.000000
########## Receptor Hydrophobic:             0.000000
##########         Total Energy: -47.55
##########        Ligand Charge:             1.000000
##########            Arbitrary:    +999.9990
##########     heavy atom count:   31
##########           pose count:   10
##########        Ligand Energy:             0.000000
# num electro vdwattr vdwrepu polsolv apolsol rdesolv rhydroe totalscore fullpol fullapo
#   1   -2.55   -3.36    2.64   -4.22    0.51    0.00    0.00      -6.98   -6.67    0.80
#   2    2.29   -2.49    0.91    1.76   -1.31    0.00    0.00       1.15    2.88   -2.15
#   3   -1.39   -1.92    0.55   -1.18   -0.23    0.00    0.00      -4.16   -2.27   -0.44
#   4    1.55   -2.21    1.04    0.57   -0.36    0.00    0.00       0.59    1.19   -0.75
#   5   -1.14   -2.35    1.09   -0.97    0.50    0.00    0.00      -2.86   -2.09    1.09
#   6    0.06   -1.60    0.25   -1.57    0.42    0.00    0.00      -2.45   -3.66    0.98
#   7   -0.71   -1.05    0.19    0.66   -0.17    0.00    0.00      -1.08    1.69   -0.43
#   8    1.07   -0.57    0.04   -0.66   -0.05    0.00    0.00      -0.17   -2.04   -0.15
#   9    1.31   -0.46    0.03   -0.86   -0.06    0.00    0.00      -0.04   -3.32   -0.22
#  10    0.08   -0.83    0.18    0.25   -0.15    0.00    0.00      -0.47    0.81   -0.47
#  11   13.93   -3.86   11.24   -5.72    0.32    0.00    0.00      15.91  -16.13    0.89
#  12  -10.50   -0.03    0.00    3.61    0.12    0.00    0.00      -6.80   16.80    0.56
#  13  -19.52   -0.62    1.22    7.51    0.24    0.00    0.00     -11.17   17.91    0.57
#  14    0.11   -1.64    0.70    0.26   -0.20    0.00    0.00      -0.76    0.62   -0.47
#  15    2.02   -0.67    0.04   -1.40   -0.09    0.00    0.00      -0.09   -3.51   -0.22
#  16    0.48   -1.89    0.52    1.07   -1.00    0.00    0.00      -0.82    2.35   -2.20
#  17    0.18   -2.36    1.08   -1.85    0.98    0.00    0.00      -1.96   -3.93    2.09
#  18    0.08   -3.92    3.63    1.29   -1.68    0.00    0.00      -0.59    2.43   -3.16
#  19   -2.77   -4.27    2.94   -2.00    1.25    0.00    0.00      -4.85   -3.33    2.08
#  20   -0.77   -2.27    0.81   -0.19   -0.20    0.00    0.00      -2.62   -0.35   -0.37
#  21   -1.77   -3.33    3.30   -0.42   -0.19    0.00    0.00      -2.41   -0.74   -0.34
#  22   -1.74   -3.55    1.62   -0.53   -0.27    0.00    0.00      -4.46   -0.89   -0.45
#  23    0.02   -2.64    0.82   -0.10   -0.24    0.00    0.00      -2.14   -0.17   -0.40
#  24   -2.26   -2.67    0.84   -0.52   -0.28    0.00    0.00      -4.91   -0.85   -0.46
#  25    1.77   -2.36    0.53    0.24   -0.20    0.00    0.00      -0.03    0.36   -0.31
#  26   -2.81   -1.89    0.30   -0.58    0.60    0.00    0.00      -4.37   -0.87    0.91
#  27   -0.06   -2.44    1.44   -0.09   -0.16    0.00    0.00      -1.31   -0.14   -0.26
#  28   -1.34   -2.92    3.85   -0.67   -0.27    0.00    0.00      -1.35   -1.10   -0.44
#  29   -1.10   -2.25    1.69   -0.66   -0.28    0.00    0.00      -2.60   -1.03   -0.44
#  30   -1.54   -3.52    1.65   -0.87   -0.28    0.00    0.00      -4.56   -1.33   -0.43
#  31   -0.48   -3.52    1.63   -0.29   -0.31    0.00    0.00      -2.98   -0.44   -0.46
#  32   -1.17   -2.36    0.47   -0.48   -0.26    0.00    0.00      -3.80   -0.73   -0.40
#  33   -0.53   -2.61    1.05   -0.25   -0.27    0.00    0.00      -2.60   -0.42   -0.45
#  34   -0.38   -0.08    0.01    2.38    0.35    0.00    0.00       2.27    3.98    0.59
#  35    1.84   -0.03    0.00    1.70    0.17    0.00    0.00       3.68    3.76    0.37
#  36   -0.55   -0.41    0.07    0.44   -0.10    0.00    0.00      -0.56    1.20   -0.28
#  37   -0.52   -0.63    0.48    0.64   -0.08    0.00    0.00      -0.12    2.13   -0.28
#  38   -0.73   -0.24    0.06    0.19   -0.06    0.00    0.00      -0.79    0.89   -0.28
#  39   -0.83   -0.14    0.01    0.35   -0.04    0.00    0.00      -0.65    2.68   -0.28
#  40   -0.73   -0.13    0.01    0.03   -0.03    0.00    0.00      -0.85    0.24   -0.24
#  41   -1.22   -0.17    0.02    0.85   -0.05    0.00    0.00      -0.58    4.89   -0.28
#  42   -1.43   -0.35    0.08    1.05   -0.09    0.00    0.00      -0.74    3.42   -0.28
#  43   -4.23   -0.68    0.34    2.64   -0.12    0.00    0.00      -2.05    6.05   -0.28
#  44   -2.84   -0.89    1.26    1.70   -0.13    0.00    0.00      -0.88    3.78   -0.28
#  45   -1.34   -0.21    0.01    0.49   -0.07    0.00    0.00      -1.12    1.92   -0.28
#  46   -1.45   -0.19    0.01    0.67   -0.06    0.00    0.00      -1.02    3.38   -0.28
#  47   -0.55   -1.02    1.11    1.23   -0.14    0.00    0.00       0.64    2.55   -0.28
#  48    1.43   -0.72    0.57    0.70   -0.12    0.00    0.00       1.87    1.50   -0.25
#  49    1.08   -1.28    1.36    1.06   -0.18    0.00    0.00       2.05    1.69   -0.28
#  50    1.30   -0.70    0.39    0.34   -0.15    0.00    0.00       1.18    0.65   -0.28
#  51    0.84   -1.40    2.22    0.80   -0.12    0.00    0.00       2.33    1.30   -0.20
#  52    0.90   -0.98    3.23    0.16   -0.12    0.00    0.00       3.18    0.38   -0.28
#  53    0.80   -1.82    4.56    0.67   -0.17    0.00    0.00       4.04    1.14   -0.28
#  54    0.67   -1.38    3.39    0.65   -0.17    0.00    0.00       3.17    1.07   -0.28
#  55    0.64   -0.43    0.12    0.18   -0.15    0.00    0.00       0.36    0.34   -0.28
#  56    0.52   -1.13    0.89    0.87   -0.12    0.00    0.00       1.04    1.43   -0.19
#  57    0.56   -1.01    0.53    1.26   -0.18    0.00    0.00       1.16    1.98   -0.28
#  58    1.25   -0.96    1.69    0.75   -0.14    0.00    0.00       2.58    1.46   -0.28

@<TRIPOS>MOLECULE
             1514        86
   58    63     0     0     0



@<TRIPOS>ATOM
      1 N1         20.0243    12.9470    64.6845 N.pl3      1          -0.8252
      2 C1         21.2772    13.4524    64.3963 C.ar       1           0.5218
      3 C2         21.4524    14.8125    64.0918 C.ar       1          -0.3250
      4 C3         20.5657    15.9710    63.9844 C.2        1           0.1912
      5 N2         21.3084    17.0040    63.6634 N.2        1          -0.2485
      6 N3         22.6457    16.6106    63.5476 N.pl3      1          -0.3884
      7 C4         23.7614    17.4952    63.2022 C.3        1           0.1492
      8 C5         23.9443    17.5161    61.6833 C.3        1          -0.1198
      9 C6         25.3523    18.0134    61.3439 C.3        1          -0.1425
     10 C7         25.5014    18.1075    59.8238 C.3        1          -0.0058
     11 N4         24.5073    19.0452    59.2883 N.4        1          -0.5053
     12 H1         24.6198    19.9437    59.7334 H          1           0.4283
     13 H2         24.6423    19.1448    58.2932 H          1           0.4323
     14 C8         23.1543    18.5384    59.5473 C.3        1          -0.0046
     15 C9         22.9149    18.4610    61.0566 C.3        1          -0.1406
     16 C10        22.7499    15.2762    63.8061 C.ar       1           0.3770
     17 N5         23.7601    14.4068    63.8361 N.ar       1          -0.5792
     18 C11        23.5485    13.1421    64.1267 C.ar       1           0.3924
     19 N6         22.3483    12.6650    64.4054 N.ar       1          -0.5988
     20 C12        19.0993    15.9767    64.1987 C.ar       1          -0.0530
     21 C13        18.2439    16.3615    63.1527 C.ar       1          -0.1005
     22 C14        16.8969    16.3751    63.3237 C.ar       1          -0.1024
     23 C15        16.3412    16.0007    64.5610 C.ar       1           0.0013
     24 C16        14.9514    16.0063    64.7613 C.ar       1          -0.1604
     25 C17        14.4413    15.6373    65.9736 C.ar       1           0.1505
     26 O1         13.0960    15.6433    66.1648 O.3        1          -0.2797
     27 C18        12.4848    14.3997    66.5136 C.3        1          -0.0074
     28 C19        12.1783    13.4202    65.3790 C.3        1          -0.1809
     29 C20        11.0387    14.1736    66.0678 C.3        1          -0.1664
     30 C21        15.2851    15.2530    67.0206 C.ar       1          -0.1858
     31 C22        16.6351    15.2366    66.8593 C.ar       1          -0.0584
     32 C23        17.1950    15.6105    65.6239 C.ar       1          -0.0859
     33 C24        18.5840    15.5978    65.4249 C.ar       1          -0.0430
     34 H3         19.9180    12.0070    64.8990 H          1           0.4142
     35 H4         19.2513    13.5329    64.6764 H          1           0.4162
     36 H5         23.5485    18.5036    63.5565 H          1           0.1075
     37 H6         24.6740    17.1297    63.6731 H          1           0.1007
     38 H7         23.8059    16.5107    61.2857 H          1           0.0960
     39 H8         25.5073    18.9974    61.7864 H          1           0.0931
     40 H9         26.0901    17.3154    61.7395 H          1           0.1125
     41 H10        26.5029    18.4612    59.5787 H          1           0.1343
     42 H11        25.3465    17.1230    59.3824 H          1           0.1287
     43 H12        22.4230    19.2102    59.0978 H          1           0.1367
     44 H13        23.0495    17.5448    59.1117 H          1           0.1309
     45 H14        21.9104    18.0827    61.2468 H          1           0.1182
     46 H15        23.0192    19.4542    61.4932 H          1           0.0938
     47 H16        24.3906    12.4662    64.1413 H          1           0.2072
     48 H17        18.6632    16.6506    62.2003 H          1           0.1308
     49 H18        16.2523    16.6736    62.5103 H          1           0.1382
     50 H19        14.2890    16.3014    63.9610 H          1           0.1399
     51 H20        12.7869    13.9801    67.4732 H          1           0.1267
     52 H21        12.4430    13.7244    64.3662 H          1           0.1056
     53 H22        12.2791    12.3559    65.5917 H          1           0.1077
     54 H23        10.3897    13.6050    66.7338 H          1           0.1104
     55 H24        10.5536    14.9734    65.5082 H          1           0.1067
     56 H25        14.8586    14.9656    67.9704 H          1           0.1383
     57 H26        17.2751    14.9380    67.6763 H          1           0.1359
     58 H27        19.2456    15.2983    66.2242 H          1           0.1333
@<TRIPOS>BOND
     1    1    2 1
     2    1   34 1
     3    1   35 1
     4    2   19 ar
     5    2    3 ar
     6    3   16 ar
     7    3    4 1
     8    4    5 2
     9    4   20 1
    10    5    6 1
    11    6    7 1
    12    6   16 1
    13    7    8 1
    14    7   36 1
    15    7   37 1
    16    8   15 1
    17    8    9 1
    18    8   38 1
    19    9   10 1
    20    9   39 1
    21    9   40 1
    22   10   11 1
    23   10   41 1
    24   10   42 1
    25   11   12 1
    26   11   13 1
    27   11   14 1
    28   14   15 1
    29   14   43 1
    30   14   44 1
    31   15   45 1
    32   15   46 1
    33   16   17 ar
    34   17   18 ar
    35   18   19 ar
    36   18   47 1
    37   20   33 ar
    38   20   21 ar
    39   21   22 ar
    40   21   48 1
    41   22   23 ar
    42   22   49 1
    43   23   32 ar
    44   23   24 ar
    45   24   25 ar
    46   24   50 1
    47   25   26 1
    48   25   30 ar
    49   26   27 1
    50   27   29 1
    51   27   28 1
    52   27   51 1
    53   28   29 1
    54   28   52 1
    55   28   53 1
    56   29   54 1
    57   29   55 1
    58   30   31 ar
    59   30   56 1
    60   31   32 ar
    61   31   57 1
    62   32   33 ar
    63   33   58 1
##########                 Name:                 1514
##########          Protonation:                   86
##########               SMILES:   c1cc(cc2c1cc(cc2)OC3CC3)c4c5c(ncnc5n(n4)CC6CC[NH2+]CC6)N
##########            Long Name:   )-2-naphthyl]-1-(piperidin-1-ium-4-ylmethyl)pyrazolo[3,4-d]pyrimidin-4-amine
##########          FlexRecCode: 1
##########               Number:                  182
##########   Ligand Source File: /raid1/people/rgc/Examples/tdt/part3/ligand22set/build/ligand22set-0000001.db2.g
##########           GlobalRank: 6
##########                 Rank:                    1
##########               Setnum:                  101
##########             Matchnum:                66008
##########                Cloud:                    1
##########        Electrostatic:           -29.354332
##########        Van der Waals:           -29.565557
##########  Ligand Polar Desolv:            16.985874
########## Ligand Apolar Desolv:            -5.539143
##########      Internal Energy:             0.000000
##########      Receptor Energy: 0.0
########## Receptor Desolvation:             0.000000
########## Receptor Hydrophobic:             0.000000
##########         Total Energy: -47.47
##########        Ligand Charge:             1.000000
##########            Arbitrary:    +999.9990
##########     heavy atom count:   31
##########           pose count:   10
##########        Ligand Energy:             0.000000
# num electro vdwattr vdwrepu polsolv apolsol rdesolv rhydroe totalscore fullpol fullapo
#   1   -2.51   -2.82    0.96   -4.27    0.51    0.00    0.00      -8.12   -6.67    0.80
#   2    2.02   -2.17    0.45    1.74   -1.30    0.00    0.00       0.73    2.88   -2.15
#   3   -1.13   -1.68    0.37   -1.17   -0.23    0.00    0.00      -3.84   -2.27   -0.44
#   4    1.42   -1.82    0.47    0.56   -0.35    0.00    0.00       0.29    1.19   -0.75
#   5   -0.99   -1.92    0.56   -0.95    0.49    0.00    0.00      -2.81   -2.09    1.09
#   6    0.47   -1.33    0.15   -1.53    0.41    0.00    0.00      -1.84   -3.66    0.98
#   7   -0.88   -0.79    0.08    0.64   -0.16    0.00    0.00      -1.11    1.69   -0.43
#   8    1.41   -0.61    0.03   -0.81   -0.06    0.00    0.00      -0.04   -2.04   -0.15
#   9    1.90   -1.36    0.41   -1.43   -0.09    0.00    0.00      -0.58   -3.32   -0.22
#  10    0.13   -1.55    0.53    0.36   -0.21    0.00    0.00      -0.75    0.81   -0.47
#  11   11.20   -1.89    0.60   -8.85    0.49    0.00    0.00       1.55  -16.13    0.89
#  12   -6.75   -0.03    0.00    7.53    0.25    0.00    0.00       1.00   16.80    0.56
#  13  -11.62   -0.07    0.01    8.59    0.27    0.00    0.00      -2.82   17.91    0.57
#  14    0.11   -1.79    0.71    0.32   -0.24    0.00    0.00      -0.89    0.62   -0.47
#  15    1.88   -1.12    0.36   -1.47   -0.09    0.00    0.00      -0.44   -3.51   -0.22
#  16    0.07   -1.58    0.34    1.03   -0.97    0.00    0.00      -1.11    2.35   -2.20
#  17    0.94   -1.75    0.35   -1.77    0.94    0.00    0.00      -1.29   -3.93    2.09
#  18   -0.78   -3.32    2.29    1.24   -1.61    0.00    0.00      -2.19    2.43   -3.16
#  19   -2.11   -3.82    1.90   -1.97    1.23    0.00    0.00      -4.77   -3.33    2.08
#  20   -0.73   -1.98    0.49   -0.19   -0.20    0.00    0.00      -2.61   -0.35   -0.37
#  21   -1.51   -3.15    1.99   -0.41   -0.19    0.00    0.00      -3.27   -0.74   -0.34
#  22   -1.48   -3.65    1.72   -0.53   -0.27    0.00    0.00      -4.21   -0.89   -0.45
#  23    0.02   -2.61    0.80   -0.10   -0.24    0.00    0.00      -2.12   -0.17   -0.40
#  24   -2.03   -2.87    1.66   -0.51   -0.28    0.00    0.00      -4.03   -0.85   -0.46
#  25    1.55   -2.62    1.21    0.23   -0.20    0.00    0.00       0.17    0.36   -0.31
#  26   -2.56   -1.94    0.38   -0.57    0.60    0.00    0.00      -4.10   -0.87    0.91
#  27   -0.06   -1.46    0.53   -0.09   -0.17    0.00    0.00      -1.25   -0.14   -0.26
#  28   -1.33   -2.51    2.28   -0.70   -0.28    0.00    0.00      -2.55   -1.10   -0.44
#  29   -1.03   -1.42    0.33   -0.65   -0.28    0.00    0.00      -3.06   -1.03   -0.44
#  30   -1.15   -3.28    0.98   -0.86   -0.28    0.00    0.00      -4.61   -1.33   -0.43
#  31   -0.39   -3.06    0.78   -0.29   -0.30    0.00    0.00      -3.27   -0.44   -0.46
#  32   -1.06   -2.22    0.39   -0.47   -0.26    0.00    0.00      -3.61   -0.73   -0.40
#  33   -0.50   -2.25    0.63   -0.25   -0.26    0.00    0.00      -2.64   -0.42   -0.45
#  34   -0.09   -0.07    0.00    2.43    0.36    0.00    0.00       2.63    3.98    0.59
#  35    1.70   -0.03    0.00    1.80    0.18    0.00    0.00       3.64    3.76    0.37
#  36   -0.55   -0.47    0.13    0.43   -0.10    0.00    0.00      -0.56    1.20   -0.28
#  37   -0.64   -0.18    0.01    0.35   -0.05    0.00    0.00      -0.51    2.13   -0.28
#  38   -1.39   -0.14    0.00    0.12   -0.04    0.00    0.00      -1.44    0.89   -0.28
#  39   -0.74   -0.52    0.21    1.00   -0.10    0.00    0.00      -0.15    2.68   -0.28
#  40   -1.52   -0.85    0.88    0.09   -0.09    0.00    0.00      -1.49    0.24   -0.24
#  41   -3.02   -0.98    1.10    2.30   -0.13    0.00    0.00      -0.73    4.89   -0.28
#  42   -3.38   -0.40    0.10    1.21   -0.10    0.00    0.00      -2.57    3.42   -0.28
#  43   -3.82   -1.41    4.04    3.28   -0.15    0.00    0.00       1.94    6.05   -0.28
#  44   -4.08   -0.72    0.39    1.67   -0.12    0.00    0.00      -2.86    3.78   -0.28
#  45   -1.49   -0.63    0.66    0.64   -0.09    0.00    0.00      -0.91    1.92   -0.28
#  46   -0.73   -0.36    0.16    1.04   -0.09    0.00    0.00       0.03    3.38   -0.28
#  47   -1.37   -1.13    2.49    1.13   -0.12    0.00    0.00       1.00    2.55   -0.28
#  48    1.10   -0.82    0.82    0.74   -0.12    0.00    0.00       1.71    1.50   -0.25
#  49    0.99   -1.41    1.66    1.07   -0.18    0.00    0.00       2.13    1.69   -0.28
#  50    1.36   -0.62    0.22    0.33   -0.14    0.00    0.00       1.15    0.65   -0.28
#  51    1.19   -0.97    3.28    0.55   -0.09    0.00    0.00       3.96    1.30   -0.20
#  52    0.92   -2.35   11.09    0.21   -0.15    0.00    0.00       9.72    0.38   -0.28
#  53    0.71   -0.84    0.39    0.63   -0.15    0.00    0.00       0.73    1.14   -0.28
#  54    0.53   -0.38    0.07    0.56   -0.15    0.00    0.00       0.64    1.07   -0.28
#  55    0.67   -0.80    1.33    0.18   -0.15    0.00    0.00       1.23    0.34   -0.28
#  56    0.17   -1.03    0.67    0.89   -0.12    0.00    0.00       0.58    1.43   -0.19
#  57    0.41   -0.81    0.22    1.25   -0.18    0.00    0.00       0.89    1.98   -0.28
#  58    1.20   -0.77    0.93    0.69   -0.13    0.00    0.00       1.91    1.46   -0.28

@<TRIPOS>MOLECULE
             1514        86
   58    63     0     0     0



@<TRIPOS>ATOM
      1 N1         20.1884    12.8506    64.3202 N.pl3      1          -0.8252
      2 C1         21.4020    13.4262    63.9971 C.ar       1           0.5218
      3 C2         21.4943    14.7981    63.7097 C.ar       1          -0.3250
      4 C3         20.5446    15.9092    63.6526 C.2        1           0.1912
      5 N2         21.2200    16.9850    63.3232 N.2        1          -0.2485
      6 N3         22.5712    16.6650    63.1545 N.pl3      1          -0.3884
      7 C4         23.6256    17.6128    62.7854 C.3        1           0.1492
      8 C5         23.1357    18.4999    61.6391 C.3        1          -0.1198
      9 C6         22.2336    19.6048    62.1964 C.3        1          -0.1425
     10 C7         21.6837    20.4396    61.0377 C.3        1          -0.0058
     11 N4         20.9072    19.5801    60.1363 N.4        1          -0.5053
     12 H1         20.1706    19.1274    60.6563 H          1           0.4283
     13 H2         20.5029    20.1425    59.4025 H          1           0.4323
     14 C8         21.7820    18.5619    59.5426 C.3        1          -0.0046
     15 C9         22.3356    17.6549    60.6437 C.3        1          -0.1406
     16 C10        22.7546    15.3343    63.3868 C.ar       1           0.3770
     17 N5         23.8096    14.5196    63.3671 N.ar       1          -0.5792
     18 C11        23.6753    13.2413    63.6436 C.ar       1           0.3924
     19 N6         22.5126    12.6968    63.9558 N.ar       1          -0.5988
     20 C12        19.0884    15.8337    63.9178 C.ar       1          -0.0530
     21 C13        18.1773    16.1879    62.9088 C.ar       1          -0.1005
     22 C14        16.8385    16.1273    63.1268 C.ar       1          -0.1024
     23 C15        16.3476    15.7054    64.3762 C.ar       1           0.0013
     24 C16        14.9675    15.6341    64.6248 C.ar       1          -0.1604
     25 C17        14.5211    15.2204    65.8478 C.ar       1           0.1505
     26 O1         13.1849    15.1519    66.0857 O.3        1          -0.2797
     27 C18        12.3407    14.8692    64.9681 C.3        1          -0.0074
     28 C19        11.4212    15.9888    64.4761 C.3        1          -0.1809
     29 C20        10.8341    14.7895    65.2231 C.3        1          -0.1664
     30 C21        15.4206    14.8660    66.8581 C.ar       1          -0.1858
     31 C22        16.7630    14.9239    66.6497 C.ar       1          -0.0584
     32 C23        17.2580    15.3455    65.4020 C.ar       1          -0.0859
     33 C24        18.6378    15.4097    65.1547 C.ar       1          -0.0430
     34 H3         20.1396    11.9032    64.5225 H          1           0.4142
     35 H4         19.3859    13.3946    64.3488 H          1           0.4162
     36 H5         23.8729    18.2344    63.6458 H          1           0.1075
     37 H6         24.5120    17.0640    62.4668 H          1           0.1007
     38 H7         23.9912    18.9469    61.1329 H          1           0.0960
     39 H8         21.4065    19.1565    62.7467 H          1           0.0931
     40 H9         22.8114    20.2445    62.8637 H          1           0.1125
     41 H10        21.0411    21.2274    61.4311 H          1           0.1343
     42 H11        22.5117    20.8878    60.4884 H          1           0.1287
     43 H12        21.2119    17.9633    58.8319 H          1           0.1367
     44 H13        22.6077    19.0500    59.0250 H          1           0.1309
     45 H14        22.9863    16.9007    60.2009 H          1           0.1182
     46 H15        21.5106    17.1661    61.1618 H          1           0.0938
     47 H16        24.5519    12.6110    63.6175 H          1           0.2072
     48 H17        18.5465    16.5131    61.9474 H          1           0.1308
     49 H18        16.1504    16.4032    62.3414 H          1           0.1382
     50 H19        14.2623    15.9054    63.8531 H          1           0.1399
     51 H20        12.7606    14.1971    64.2196 H          1           0.1267
     52 H21        11.4603    16.9412    65.0051 H          1           0.1056
     53 H22        11.2363    16.0536    63.4039 H          1           0.1077
     54 H23        10.2630    14.0653    64.6422 H          1           0.1104
     55 H24        10.4870    14.9527    66.2433 H          1           0.1067
     56 H25        15.0440    14.5423    67.8172 H          1           0.1383
     57 H26        17.4466    14.6476    67.4388 H          1           0.1359
     58 H27        19.3424    15.1340    65.9254 H          1           0.1333
@<TRIPOS>BOND
     1    1    2 1
     2    1   34 1
     3    1   35 1
     4    2   19 ar
     5    2    3 ar
     6    3   16 ar
     7    3    4 1
     8    4    5 2
     9    4   20 1
    10    5    6 1
    11    6    7 1
    12    6   16 1
    13    7    8 1
    14    7   36 1
    15    7   37 1
    16    8   15 1
    17    8    9 1
    18    8   38 1
    19    9   10 1
    20    9   39 1
    21    9   40 1
    22   10   11 1
    23   10   41 1
    24   10   42 1
    25   11   12 1
    26   11   13 1
    27   11   14 1
    28   14   15 1
    29   14   43 1
    30   14   44 1
    31   15   45 1
    32   15   46 1
    33   16   17 ar
    34   17   18 ar
    35   18   19 ar
    36   18   47 1
    37   20   33 ar
    38   20   21 ar
    39   21   22 ar
    40   21   48 1
    41   22   23 ar
    42   22   49 1
    43   23   32 ar
    44   23   24 ar
    45   24   25 ar
    46   24   50 1
    47   25   26 1
    48   25   30 ar
    49   26   27 1
    50   27   29 1
    51   27   28 1
    52   27   51 1
    53   28   29 1
    54   28   52 1
    55   28   53 1
    56   29   54 1
    57   29   55 1
    58   30   31 ar
    59   30   56 1
    60   31   32 ar
    61   31   57 1
    62   32   33 ar
    63   33   58 1
##########                 Name:                 1514
##########          Protonation:                   86
##########               SMILES:   c1cc(cc2c1cc(cc2)OC3CC3)c4c5c(ncnc5n(n4)CC6CC[NH2+]CC6)N
##########            Long Name:   )-2-naphthyl]-1-(piperidin-1-ium-4-ylmethyl)pyrazolo[3,4-d]pyrimidin-4-amine
##########          FlexRecCode: 1
##########               Number:                  186
##########   Ligand Source File: /raid1/people/rgc/Examples/tdt/part3/ligand22set/build/ligand22set-0000001.db2.g
##########           GlobalRank: 6
##########                 Rank:                    4
##########               Setnum:                  201
##########             Matchnum:                34423
##########                Cloud:                    1
##########        Electrostatic:           -36.505840
##########        Van der Waals:           -19.543375
##########  Ligand Polar Desolv:            14.650178
########## Ligand Apolar Desolv:            -5.492265
##########      Internal Energy:             0.000000
##########      Receptor Energy: 0.0
########## Receptor Desolvation:             0.000000
########## Receptor Hydrophobic:             0.000000
##########         Total Energy: -46.89
##########        Ligand Charge:             1.000000
##########            Arbitrary:    +999.9990
##########     heavy atom count:   31
##########           pose count:   10
##########        Ligand Energy:             0.000000
# num electro vdwattr vdwrepu polsolv apolsol rdesolv rhydroe totalscore fullpol fullapo
#   1   -2.55   -3.36    2.64   -4.22    0.51    0.00    0.00      -6.98   -6.67    0.80
#   2    2.29   -2.49    0.91    1.76   -1.31    0.00    0.00       1.15    2.88   -2.15
#   3   -1.39   -1.92    0.55   -1.18   -0.23    0.00    0.00      -4.16   -2.27   -0.44
#   4    1.55   -2.21    1.04    0.57   -0.36    0.00    0.00       0.59    1.19   -0.75
#   5   -1.14   -2.35    1.09   -0.97    0.50    0.00    0.00      -2.86   -2.09    1.09
#   6    0.06   -1.60    0.25   -1.57    0.42    0.00    0.00      -2.45   -3.66    0.98
#   7   -0.71   -1.05    0.19    0.66   -0.17    0.00    0.00      -1.08    1.69   -0.43
#   8    1.07   -0.57    0.04   -0.66   -0.05    0.00    0.00      -0.17   -2.04   -0.15
#   9    1.49   -0.47    0.02   -0.89   -0.06    0.00    0.00       0.10   -3.32   -0.22
#  10    0.09   -1.00    0.36    0.25   -0.14    0.00    0.00      -0.44    0.81   -0.47
#  11   15.22   -4.30   13.42   -6.27    0.35    0.00    0.00      18.41  -16.13    0.89
#  12  -12.28   -0.04    0.00    4.90    0.16    0.00    0.00      -7.26   16.80    0.56
#  13  -21.51   -0.77    1.94    8.56    0.27    0.00    0.00     -11.52   17.91    0.57
#  14    0.10   -1.78    0.85    0.27   -0.21    0.00    0.00      -0.75    0.62   -0.47
#  15    1.83   -0.75    0.08   -1.41   -0.09    0.00    0.00      -0.34   -3.51   -0.22
#  16    0.48   -1.89    0.52    1.07   -1.00    0.00    0.00      -0.82    2.35   -2.20
#  17    0.18   -2.36    1.08   -1.85    0.98    0.00    0.00      -1.96   -3.93    2.09
#  18    0.08   -3.92    3.63    1.29   -1.68    0.00    0.00      -0.59    2.43   -3.16
#  19   -2.77   -4.27    2.94   -2.00    1.25    0.00    0.00      -4.85   -3.33    2.08
#  20   -0.77   -2.27    0.81   -0.19   -0.20    0.00    0.00      -2.62   -0.35   -0.37
#  21   -1.77   -3.33    3.30   -0.42   -0.19    0.00    0.00      -2.41   -0.74   -0.34
#  22   -1.74   -3.55    1.62   -0.53   -0.27    0.00    0.00      -4.46   -0.89   -0.45
#  23    0.02   -2.64    0.82   -0.10   -0.24    0.00    0.00      -2.14   -0.17   -0.40
#  24   -2.26   -2.67    0.84   -0.52   -0.28    0.00    0.00      -4.91   -0.85   -0.46
#  25    1.77   -2.36    0.53    0.24   -0.20    0.00    0.00      -0.03    0.36   -0.31
#  26   -2.81   -1.89    0.30   -0.58    0.60    0.00    0.00      -4.37   -0.87    0.91
#  27   -0.06   -1.47    0.44   -0.09   -0.17    0.00    0.00      -1.35   -0.14   -0.26
#  28   -1.28   -1.68    0.51   -0.70   -0.28    0.00    0.00      -3.44   -1.10   -0.44
#  29   -1.05   -1.58    0.55   -0.65   -0.28    0.00    0.00      -3.01   -1.03   -0.44
#  30   -1.54   -3.52    1.65   -0.87   -0.28    0.00    0.00      -4.56   -1.33   -0.43
#  31   -0.48   -3.52    1.63   -0.29   -0.31    0.00    0.00      -2.98   -0.44   -0.46
#  32   -1.17   -2.36    0.47   -0.48   -0.26    0.00    0.00      -3.80   -0.73   -0.40
#  33   -0.53   -2.61    1.05   -0.25   -0.27    0.00    0.00      -2.60   -0.42   -0.45
#  34   -0.38   -0.08    0.01    2.38    0.35    0.00    0.00       2.27    3.98    0.59
#  35    1.84   -0.03    0.00    1.70    0.17    0.00    0.00       3.68    3.76    0.37
#  36   -0.55   -0.41    0.07    0.44   -0.10    0.00    0.00      -0.56    1.20   -0.28
#  37   -0.52   -0.63    0.48    0.64   -0.08    0.00    0.00      -0.12    2.13   -0.28
#  38   -0.71   -0.20    0.03    0.17   -0.05    0.00    0.00      -0.77    0.89   -0.28
#  39   -0.99   -0.14    0.01    0.38   -0.04    0.00    0.00      -0.79    2.68   -0.28
#  40   -0.84   -0.13    0.01    0.03   -0.03    0.00    0.00      -0.96    0.24   -0.24
#  41   -1.90   -0.25    0.08    0.87   -0.05    0.00    0.00      -1.25    4.89   -0.28
#  42   -1.62   -0.32    0.07    0.97   -0.08    0.00    0.00      -0.98    3.42   -0.28
#  43   -3.82   -0.71    0.40    2.88   -0.13    0.00    0.00      -1.40    6.05   -0.28
#  44   -2.50   -1.40    5.61    1.73   -0.13    0.00    0.00       3.32    3.78   -0.28
#  45   -1.02   -0.29    0.08    0.52   -0.08    0.00    0.00      -0.79    1.92   -0.28
#  46   -1.36   -0.19    0.01    0.71   -0.06    0.00    0.00      -0.89    3.38   -0.28
#  47   -0.55   -1.02    1.11    1.23   -0.14    0.00    0.00       0.64    2.55   -0.28
#  48    1.43   -0.72    0.57    0.70   -0.12    0.00    0.00       1.87    1.50   -0.25
#  49    1.08   -1.28    1.36    1.06   -0.18    0.00    0.00       2.05    1.69   -0.28
#  50    1.30   -0.70    0.39    0.34   -0.15    0.00    0.00       1.18    0.65   -0.28
#  51    1.05   -1.05    3.32    0.59   -0.09    0.00    0.00       3.82    1.30   -0.20
#  52    0.80   -1.40    3.05    0.21   -0.15    0.00    0.00       2.50    0.38   -0.28
#  53    0.72   -0.48    0.08    0.55   -0.14    0.00    0.00       0.73    1.14   -0.28
#  54    0.61   -0.45    0.10    0.58   -0.15    0.00    0.00       0.69    1.07   -0.28
#  55    0.67   -1.09    3.12    0.19   -0.15    0.00    0.00       2.74    0.34   -0.28
#  56    0.52   -1.13    0.89    0.87   -0.12    0.00    0.00       1.04    1.43   -0.19
#  57    0.56   -1.01    0.53    1.26   -0.18    0.00    0.00       1.16    1.98   -0.28
#  58    1.25   -0.96    1.69    0.75   -0.14    0.00    0.00       2.58    1.46   -0.28

@<TRIPOS>MOLECULE
             1514        86
   58    63     0     0     0



@<TRIPOS>ATOM
      1 N1         20.0243    12.9470    64.6845 N.pl3      1          -0.8252
      2 C1         21.2772    13.4524    64.3963 C.ar       1           0.5218
      3 C2         21.4524    14.8125    64.0918 C.ar       1          -0.3250
      4 C3         20.5657    15.9710    63.9844 C.2        1           0.1912
      5 N2         21.3084    17.0040    63.6634 N.2        1          -0.2485
      6 N3         22.6457    16.6106    63.5476 N.pl3      1          -0.3884
      7 C4         23.7614    17.4952    63.2022 C.3        1           0.1492
      8 C5         23.9443    17.5161    61.6833 C.3        1          -0.1198
      9 C6         25.1038    18.4481    61.3200 C.3        1          -0.1425
     10 C7         25.2302    18.5263    59.7969 C.3        1          -0.0058
     11 N4         23.9832    19.0483    59.2252 N.4        1          -0.5053
     12 H1         23.7787    19.9486    59.6322 H          1           0.4283
     13 H2         24.0881    19.1478    58.2265 H          1           0.4323
     14 C8         22.8796    18.1228    59.5084 C.3        1          -0.0046
     15 C9         22.6628    18.0293    61.0203 C.3        1          -0.1406
     16 C10        22.7499    15.2762    63.8061 C.ar       1           0.3770
     17 N5         23.7601    14.4068    63.8361 N.ar       1          -0.5792
     18 C11        23.5485    13.1421    64.1267 C.ar       1           0.3924
     19 N6         22.3483    12.6650    64.4054 N.ar       1          -0.5988
     20 C12        19.0993    15.9767    64.1987 C.ar       1          -0.0530
     21 C13        18.2439    16.3615    63.1527 C.ar       1          -0.1005
     22 C14        16.8969    16.3751    63.3237 C.ar       1          -0.1024
     23 C15        16.3412    16.0007    64.5610 C.ar       1           0.0013
     24 C16        14.9514    16.0063    64.7613 C.ar       1          -0.1604
     25 C17        14.4413    15.6373    65.9736 C.ar       1           0.1505
     26 O1         13.0960    15.6433    66.1648 O.3        1          -0.2797
     27 C18        12.3164    14.7982    65.3163 C.3        1          -0.0074
     28 C19        11.4045    15.4747    64.2907 C.3        1          -0.1809
     29 C20        10.8002    14.7961    65.5217 C.3        1          -0.1664
     30 C21        15.2851    15.2530    67.0206 C.ar       1          -0.1858
     31 C22        16.6351    15.2366    66.8593 C.ar       1          -0.0584
     32 C23        17.1950    15.6105    65.6239 C.ar       1          -0.0859
     33 C24        18.5840    15.5978    65.4249 C.ar       1          -0.0430
     34 H3         19.9180    12.0070    64.8990 H          1           0.4142
     35 H4         19.2513    13.5329    64.6764 H          1           0.4162
     36 H5         23.5485    18.5036    63.5565 H          1           0.1075
     37 H6         24.6740    17.1297    63.6731 H          1           0.1007
     38 H7         24.1600    16.5084    61.3283 H          1           0.0960
     39 H8         24.9103    19.4431    61.7207 H          1           0.0931
     40 H9         26.0300    18.0585    61.7425 H          1           0.1125
     41 H10        26.0549    19.1889    59.5348 H          1           0.1343
     42 H11        25.4239    17.5308    59.3974 H          1           0.1287
     43 H12        21.9690    18.4877    59.0332 H          1           0.1367
     44 H13        23.1234    17.1362    59.1149 H          1           0.1309
     45 H14        21.8442    17.3403    61.2286 H          1           0.1182
     46 H15        22.4186    19.0156    61.4148 H          1           0.0938
     47 H16        24.3906    12.4662    64.1413 H          1           0.2072
     48 H17        18.6632    16.6506    62.2003 H          1           0.1308
     49 H18        16.2523    16.6736    62.5103 H          1           0.1382
     50 H19        14.2890    16.3014    63.9610 H          1           0.1399
     51 H20        12.7867    13.8577    65.0291 H          1           0.1267
     52 H21        11.3993    16.5643    64.2632 H          1           0.1056
     53 H22        11.2749    14.9793    63.3284 H          1           0.1077
     54 H23        10.2730    13.8544    65.3692 H          1           0.1104
     55 H24        10.3975    15.4393    66.3040 H          1           0.1067
     56 H25        14.8586    14.9656    67.9704 H          1           0.1383
     57 H26        17.2751    14.9380    67.6763 H          1           0.1359
     58 H27        19.2456    15.2983    66.2242 H          1           0.1333
@<TRIPOS>BOND
     1    1    2 1
     2    1   34 1
     3    1   35 1
     4    2   19 ar
     5    2    3 ar
     6    3   16 ar
     7    3    4 1
     8    4    5 2
     9    4   20 1
    10    5    6 1
    11    6    7 1
    12    6   16 1
    13    7    8 1
    14    7   36 1
    15    7   37 1
    16    8   15 1
    17    8    9 1
    18    8   38 1
    19    9   10 1
    20    9   39 1
    21    9   40 1
    22   10   11 1
    23   10   41 1
    24   10   42 1
    25   11   12 1
    26   11   13 1
    27   11   14 1
    28   14   15 1
    29   14   43 1
    30   14   44 1
    31   15   45 1
    32   15   46 1
    33   16   17 ar
    34   17   18 ar
    35   18   19 ar
    36   18   47 1
    37   20   33 ar
    38   20   21 ar
    39   21   22 ar
    40   21   48 1
    41   22   23 ar
    42   22   49 1
    43   23   32 ar
    44   23   24 ar
    45   24   25 ar
    46   24   50 1
    47   25   26 1
    48   25   30 ar
    49   26   27 1
    50   27   29 1
    51   27   28 1
    52   27   51 1
    53   28   29 1
    54   28   52 1
    55   28   53 1
    56   29   54 1
    57   29   55 1
    58   30   31 ar
    59   30   56 1
    60   31   32 ar
    61   31   57 1
    62   32   33 ar
    63   33   58 1
##########                 Name:                 1514
##########          Protonation:                   86
##########               SMILES:   c1cc(cc2c1cc(cc2)OC3CC3)c4c5c(ncnc5n(n4)CC6CC[NH2+]CC6)N
##########            Long Name:   )-2-naphthyl]-1-(piperidin-1-ium-4-ylmethyl)pyrazolo[3,4-d]pyrimidin-4-amine
##########          FlexRecCode: 1
##########               Number:                  186
##########   Ligand Source File: /raid1/people/rgc/Examples/tdt/part3/ligand22set/build/ligand22set-0000001.db2.g
##########           GlobalRank: 6
##########                 Rank:                    5
##########               Setnum:                  272
##########             Matchnum:                 4190
##########                Cloud:                    1
##########        Electrostatic:           -28.950064
##########        Van der Waals:           -23.974478
##########  Ligand Polar Desolv:            13.121731
########## Ligand Apolar Desolv:            -5.998983
##########      Internal Energy:             0.000000
##########      Receptor Energy: 0.0
########## Receptor Desolvation:             0.000000
########## Receptor Hydrophobic:             0.000000
##########         Total Energy: -45.8
##########        Ligand Charge:             1.000000
##########            Arbitrary:    +999.9990
##########     heavy atom count:   31
##########           pose count:   10
##########        Ligand Energy:             0.000000
# num electro vdwattr vdwrepu polsolv apolsol rdesolv rhydroe totalscore fullpol fullapo
#   1    0.01   -4.81    3.75   -4.24    0.51    0.00    0.00      -4.78   -6.67    0.80
#   2    1.85   -2.98    1.73    1.83   -1.37    0.00    0.00       1.06    2.88   -2.15
#   3   -1.68   -1.77    0.33   -1.34   -0.26    0.00    0.00      -4.72   -2.27   -0.44
#   4    1.83   -1.75    0.34    0.62   -0.39    0.00    0.00       0.66    1.19   -0.75
#   5   -2.20   -2.18    0.81   -0.98    0.51    0.00    0.00      -4.04   -2.09    1.09
#   6   -0.94   -1.62    0.31   -1.59    0.42    0.00    0.00      -3.42   -3.66    0.98
#   7   -0.34   -0.90    0.10    0.70   -0.18    0.00    0.00      -0.62    1.69   -0.43
#   8    0.93   -0.68    0.05   -0.84   -0.06    0.00    0.00      -0.60   -2.04   -0.15
#   9    1.69   -0.54    0.03   -1.09   -0.07    0.00    0.00       0.02   -3.32   -0.22
#  10    0.13   -0.98    0.26    0.30   -0.17    0.00    0.00      -0.47    0.81   -0.47
#  11   11.51   -1.32    0.26   -6.41    0.35    0.00    0.00       4.39  -16.13    0.89
#  12   -8.22   -0.02    0.00    4.33    0.14    0.00    0.00      -3.77   16.80    0.56
#  13  -12.64   -0.04    0.00    6.46    0.21    0.00    0.00      -6.02   17.91    0.57
#  14    0.08   -1.22    0.25    0.29   -0.22    0.00    0.00      -0.82    0.62   -0.47
#  15    1.26   -1.22    0.27   -1.54   -0.10    0.00    0.00      -1.32   -3.51   -0.22
#  16    1.11   -1.82    0.44    1.18   -1.11    0.00    0.00      -0.19    2.35   -2.20
#  17   -0.80   -2.48    1.07   -2.05    1.09    0.00    0.00      -3.16   -3.93    2.09
#  18    1.66   -4.86    5.08    1.44   -1.87    0.00    0.00       1.44    2.43   -3.16
#  19   -3.46   -5.28    3.97   -2.18    1.36    0.00    0.00      -5.59   -3.33    2.08
#  20   -0.71   -1.94    0.33   -0.20   -0.22    0.00    0.00      -2.75   -0.35   -0.37
#  21   -1.39   -3.35    1.78   -0.43   -0.20    0.00    0.00      -3.59   -0.74   -0.34
#  22   -1.23   -4.20    2.37   -0.54   -0.27    0.00    0.00      -3.87   -0.89   -0.45
#  23    0.02   -2.96    1.49   -0.10   -0.24    0.00    0.00      -1.78   -0.17   -0.40
#  24   -1.77   -2.80    1.53   -0.52   -0.28    0.00    0.00      -3.84   -0.85   -0.46
#  25    1.52   -2.27    0.65    0.24   -0.20    0.00    0.00      -0.07    0.36   -0.31
#  26   -2.42   -1.96    0.44   -0.58    0.60    0.00    0.00      -3.92   -0.87    0.91
#  27   -0.05   -2.43    1.95   -0.09   -0.16    0.00    0.00      -0.78   -0.14   -0.26
#  28   -1.21   -2.11    1.16   -0.71   -0.28    0.00    0.00      -3.15   -1.10   -0.44
#  29   -0.92   -2.00    0.97   -0.65   -0.28    0.00    0.00      -2.87   -1.03   -0.44
#  30   -1.47   -3.09    0.94   -0.88   -0.28    0.00    0.00      -4.79   -1.33   -0.43
#  31   -0.41   -3.12    0.91   -0.29   -0.30    0.00    0.00      -3.20   -0.44   -0.46
#  32   -1.02   -2.51    0.76   -0.48   -0.26    0.00    0.00      -3.52   -0.73   -0.40
#  33   -0.49   -2.12    0.34   -0.27   -0.29    0.00    0.00      -2.82   -0.42   -0.45
#  34   -3.83   -0.18    0.05    2.60    0.38    0.00    0.00      -0.98    3.98    0.59
#  35    1.46   -0.07    0.01    1.89    0.19    0.00    0.00       3.46    3.76    0.37
#  36   -0.15   -0.47    0.10    0.47   -0.11    0.00    0.00      -0.16    1.20   -0.28
#  37   -0.33   -0.22    0.02    0.47   -0.06    0.00    0.00      -0.12    2.13   -0.28
#  38   -0.79   -0.31    0.12    0.23   -0.07    0.00    0.00      -0.83    0.89   -0.28
#  39   -0.91   -0.17    0.01    0.41   -0.04    0.00    0.00      -0.70    2.68   -0.28
#  40   -1.14   -0.15    0.01    0.04   -0.04    0.00    0.00      -1.28    0.24   -0.24
#  41   -3.29   -0.46    0.41    1.13   -0.06    0.00    0.00      -2.28    4.89   -0.28
#  42   -3.30   -0.46    0.14    1.28   -0.10    0.00    0.00      -2.44    3.42   -0.28
#  43   -2.60   -0.76    0.60    2.68   -0.12    0.00    0.00      -0.19    6.05   -0.28
#  44   -2.53   -0.31    0.03    1.43   -0.11    0.00    0.00      -1.48    3.78   -0.28
#  45   -0.32   -0.74    1.13    0.72   -0.10    0.00    0.00       0.68    1.92   -0.28
#  46   -0.80   -0.55    0.16    1.40   -0.12    0.00    0.00       0.08    3.38   -0.28
#  47    0.61   -2.37   13.81    1.48   -0.16    0.00    0.00      13.38    2.55   -0.28
#  48    1.27   -1.13    2.10    0.79   -0.13    0.00    0.00       2.91    1.50   -0.25
#  49    0.62   -1.81    2.79    1.08   -0.18    0.00    0.00       2.50    1.69   -0.28
#  50    1.21   -0.67    0.25    0.33   -0.14    0.00    0.00       0.98    0.65   -0.28
#  51    0.86   -1.71    5.41    0.79   -0.12    0.00    0.00       5.23    1.30   -0.20
#  52    0.75   -0.43    0.18    0.16   -0.12    0.00    0.00       0.54    0.38   -0.28
#  53    0.79   -1.41    2.38    0.66   -0.16    0.00    0.00       2.25    1.14   -0.28
#  54    0.57   -1.01    1.10    0.65   -0.17    0.00    0.00       1.14    1.07   -0.28
#  55    0.47   -0.45    0.13    0.18   -0.15    0.00    0.00       0.18    0.34   -0.28
#  56    0.85   -1.20    1.76    0.86   -0.11    0.00    0.00       2.16    1.43   -0.19
#  57    0.29   -0.80    0.23    1.23   -0.17    0.00    0.00       0.78    1.98   -0.28
#  58    1.08   -0.48    0.09    0.77   -0.15    0.00    0.00       1.31    1.46   -0.28

@<TRIPOS>MOLECULE
             1514        86
   58    63     0     0     0



@<TRIPOS>ATOM
      1 N1         19.0983    12.4957    64.7321 N.pl3      1          -0.8252
      2 C1         20.3738    12.9564    64.4692 C.ar       1           0.5218
      3 C2         20.5970    14.2991    64.1220 C.ar       1          -0.3250
      4 C3         19.7471    15.4760    63.9421 C.2        1           0.1912
      5 N2         20.5288    16.4762    63.6097 N.2        1          -0.2485
      6 N3         21.8577    16.0432    63.5546 N.pl3      1          -0.3884
      7 C4         23.0086    16.8843    63.2161 C.3        1           0.1492
      8 C5         22.6715    17.7428    61.9954 C.3        1          -0.1198
      9 C6         23.9660    18.2402    61.3458 C.3        1          -0.1425
     10 C7         23.6210    19.1619    60.1742 C.3        1          -0.0058
     11 N4         22.8442    20.3082    60.6613 N.4        1          -0.5053
     12 H1         23.3689    20.7893    61.3763 H          1           0.4283
     13 H2         22.6632    20.9402    59.8956 H          1           0.4323
     14 C8         21.5690    19.8443    61.2208 C.3        1          -0.0046
     15 C9         21.8353    18.9487    62.4326 C.3        1          -0.1406
     16 C10        21.9158    14.7170    63.8646 C.ar       1           0.3770
     17 N5         22.8997    13.8227    63.9610 N.ar       1          -0.5792
     18 C11        22.6432    12.5757    64.2897 C.ar       1           0.3924
     19 N6         21.4215    12.1415    64.5439 N.ar       1          -0.5988
     20 C12        18.2751    15.5289    64.1052 C.ar       1          -0.0530
     21 C13        17.4664    15.8972    63.0170 C.ar       1          -0.1005
     22 C14        16.1154    15.9531    63.1408 C.ar       1          -0.1024
     23 C15        15.5082    15.6399    64.3709 C.ar       1           0.0013
     24 C16        14.1131    15.6901    64.5228 C.ar       1          -0.1604
     25 C17        13.5525    15.3801    65.7293 C.ar       1           0.1505
     26 O1         12.2023    15.4290    65.8735 O.3        1          -0.2797
     27 C18        11.5452    14.2160    66.2458 C.3        1          -0.0074
     28 C19        11.2497    13.2036    65.1374 C.3        1          -0.1809
     29 C20        10.1091    14.0122    65.7587 C.3        1          -0.1664
     30 C21        14.3496    15.0125    66.8180 C.ar       1          -0.1858
     31 C22        15.7033    14.9541    66.7041 C.ar       1          -0.0584
     32 C23        16.3145    15.2668    65.4761 C.ar       1          -0.0859
     33 C24        17.7086    15.2097    65.3258 C.ar       1          -0.0430
     34 H3         18.9586    11.5674    64.9767 H          1           0.4142
     35 H4         18.3427    13.1013    64.6760 H          1           0.4162
     36 H5         23.2468    17.5309    64.0605 H          1           0.1075
     37 H6         23.8668    16.2515    62.9896 H          1           0.1007
     38 H7         22.1067    17.1487    61.2769 H          1           0.0960
     39 H8         24.5540    18.7900    62.0806 H          1           0.0931
     40 H9         24.5412    17.3887    60.9819 H          1           0.1125
     41 H10        24.5405    19.5177    59.7094 H          1           0.1343
     42 H11        23.0332    18.6109    59.4399 H          1           0.1287
     43 H12        20.9736    20.7038    61.5285 H          1           0.1367
     44 H13        21.0251    19.2789    60.4641 H          1           0.1309
     45 H14        20.8872    18.6039    62.8456 H          1           0.1182
     46 H15        22.3789    19.5134    63.1900 H          1           0.0938
     47 H16        23.4652    11.8786    64.3579 H          1           0.2072
     48 H17        17.9253    16.1395    62.0699 H          1           0.1308
     49 H18        15.5070    16.2384    62.2953 H          1           0.1382
     50 H19        13.4864    15.9728    63.6898 H          1           0.1399
     51 H20        11.8031    13.8244    67.2298 H          1           0.1267
     52 H21        11.5566    13.4628    64.1240 H          1           0.1056
     53 H22        11.3135    12.1456    65.3919 H          1           0.1077
     54 H23         9.4225    13.4863    66.4220 H          1           0.1104
     55 H24         9.6656    14.8034    65.1541 H          1           0.1067
     56 H25        13.8837    14.7721    67.7622 H          1           0.1383
     57 H26        16.3070    14.6691    67.5530 H          1           0.1359
     58 H27        18.3344    14.9225    66.1578 H          1           0.1333
@<TRIPOS>BOND
     1    1    2 1
     2    1   34 1
     3    1   35 1
     4    2   19 ar
     5    2    3 ar
     6    3   16 ar
     7    3    4 1
     8    4    5 2
     9    4   20 1
    10    5    6 1
    11    6    7 1
    12    6   16 1
    13    7    8 1
    14    7   36 1
    15    7   37 1
    16    8   15 1
    17    8    9 1
    18    8   38 1
    19    9   10 1
    20    9   39 1
    21    9   40 1
    22   10   11 1
    23   10   41 1
    24   10   42 1
    25   11   12 1
    26   11   13 1
    27   11   14 1
    28   14   15 1
    29   14   43 1
    30   14   44 1
    31   15   45 1
    32   15   46 1
    33   16   17 ar
    34   17   18 ar
    35   18   19 ar
    36   18   47 1
    37   20   33 ar
    38   20   21 ar
    39   21   22 ar
    40   21   48 1
    41   22   23 ar
    42   22   49 1
    43   23   32 ar
    44   23   24 ar
    45   24   25 ar
    46   24   50 1
    47   25   26 1
    48   25   30 ar
    49   26   27 1
    50   27   29 1
    51   27   28 1
    52   27   51 1
    53   28   29 1
    54   28   52 1
    55   28   53 1
    56   29   54 1
    57   29   55 1
    58   30   31 ar
    59   30   56 1
    60   31   32 ar
    61   31   57 1
    62   32   33 ar
    63   33   58 1
##########                 Name:                 1549
##########          Protonation:                   99
##########               SMILES:   CCOc1ccc2cc(ccc2c1)c3cc(cc4c3c(n[nH]4)N)C(C)(C)C
##########            Long Name:   6-tert-butyl-4-(6-ethoxy-2-naphthyl)-1H-indazol-3-amine
##########          FlexRecCode: 1
##########               Number:                   54
##########   Ligand Source File: /raid1/people/rgc/Examples/tdt/part3/ligand22set/build/ligand22set-0000001.db2.g
##########           GlobalRank: 5
##########                 Rank:                    1
##########               Setnum:                   26
##########             Matchnum:                 2808
##########                Cloud:                    1
##########        Electrostatic:           -11.321885
##########        Van der Waals:           -38.593170
##########  Ligand Polar Desolv:             4.372602
########## Ligand Apolar Desolv:            -5.025585
##########      Internal Energy:             0.000000
##########      Receptor Energy: 0.0
########## Receptor Desolvation:             0.000000
########## Receptor Hydrophobic:             0.000000
##########         Total Energy: -50.57
##########        Ligand Charge:             0.000000
##########            Arbitrary:    +999.9990
##########     heavy atom count:   27
##########           pose count:   10
##########        Ligand Energy:             0.000000
# num electro vdwattr vdwrepu polsolv apolsol rdesolv rhydroe totalscore fullpol fullapo
#   1   -0.96   -1.81    0.95   -0.17   -0.13    0.00    0.00      -2.12   -0.28   -0.21
#   2    0.44   -1.36    0.28    0.03   -0.07    0.00    0.00      -0.69    0.04   -0.11
#   3   -2.93   -1.91    0.34    0.56    0.58    0.00    0.00      -3.37    0.86    0.88
#   4    1.40   -2.55    1.06   -0.17   -0.20    0.00    0.00      -0.46   -0.26   -0.31
#   5   -1.13   -3.34    1.02   -0.01   -0.28    0.00    0.00      -3.73   -0.01   -0.43
#   6   -0.32   -3.18    0.90   -0.02   -0.30    0.00    0.00      -2.93   -0.03   -0.46
#   7   -0.89   -2.37    0.60    0.08   -0.26    0.00    0.00      -2.84    0.12   -0.40
#   8   -0.72   -2.08    0.39    0.03   -0.26    0.00    0.00      -2.64    0.05   -0.43
#   9   -0.74   -1.76    0.26    0.07   -0.19    0.00    0.00      -2.37    0.12   -0.34
#  10   -1.24   -3.03    1.51    0.07   -0.18    0.00    0.00      -2.86    0.13   -0.31
#  11   -1.50   -3.72    1.88    0.06   -0.27    0.00    0.00      -3.55    0.10   -0.45
#  12   -0.12   -2.78    1.20    0.04   -0.24    0.00    0.00      -1.90    0.06   -0.40
#  13   -1.92   -2.92    1.95    0.28   -0.27    0.00    0.00      -2.87    0.47   -0.45
#  14    0.26   -1.61    0.29   -0.04   -0.19    0.00    0.00      -1.29   -0.08   -0.37
#  15   -0.73   -1.74    0.33    0.57   -0.25    0.00    0.00      -1.82    0.98   -0.43
#  16    1.29   -2.78    0.75   -1.11   -1.50    0.00    0.00      -3.34   -1.72   -2.32
#  17    0.41   -4.61    3.39    1.12    0.56    0.00    0.00       0.87    1.73    0.86
#  18   -2.50   -6.19    6.71    1.48    0.81    0.00    0.00       0.31    2.27    1.24
#  19   -0.75   -3.98    2.36    1.14    0.41    0.00    0.00      -0.81    2.01    0.73
#  20    0.17   -1.97    0.57   -0.26   -0.41    0.00    0.00      -1.89   -0.51   -0.80
#  21    0.18   -1.53    0.39    0.10   -0.18    0.00    0.00      -1.05    0.23   -0.42
#  22    0.01   -1.35    0.23    0.00   -0.14    0.00    0.00      -1.26    0.00   -0.34
#  23   -0.70   -1.73    0.42    0.07   -0.17    0.00    0.00      -2.10    0.16   -0.38
#  24    0.18   -0.73    0.05   -0.02   -0.03    0.00    0.00      -0.55   -0.04   -0.08
#  25    1.03   -0.72    0.12   -0.09   -0.04    0.00    0.00       0.29   -0.31   -0.14
#  26    1.69   -0.68    0.05   -0.12   -0.07    0.00    0.00       0.87   -0.29   -0.17
#  27    0.59   -1.86    0.51   -0.10   -0.08    0.00    0.00      -0.93   -0.21   -0.17
#  28    0.27   -0.45    0.10    0.03   -0.15    0.00    0.00      -0.19    0.05   -0.28
#  29    0.41   -0.68    0.59    0.03   -0.15    0.00    0.00       0.20    0.06   -0.28
#  30    0.54   -1.23    2.99    0.25   -0.15    0.00    0.00       2.40    0.46   -0.28
#  31    0.52   -0.56    0.56    0.08   -0.11    0.00    0.00       0.49    0.20   -0.27
#  32    0.54   -0.49    0.13    0.10   -0.13    0.00    0.00       0.15    0.21   -0.27
#  33    0.23   -1.08    0.75    0.27   -0.14    0.00    0.00       0.03    0.43   -0.22
#  34    0.11   -0.81    0.20    0.38   -0.18    0.00    0.00      -0.30    0.60   -0.28
#  35    0.99   -0.60    0.31    0.09   -0.14    0.00    0.00       0.66    0.19   -0.28
#  36    1.05   -0.93    1.23   -0.10   -0.14    0.00    0.00       1.11   -0.19   -0.28
#  37    0.97   -1.43    1.73    0.10   -0.18    0.00    0.00       1.20    0.16   -0.28
#  38    1.29   -0.62    0.22   -0.14   -0.14    0.00    0.00       0.61   -0.27   -0.28
#  39    1.24   -0.07    0.01   -0.27    0.19    0.00    0.00       1.09   -0.53    0.36
#  40   -4.48   -0.25    0.15   -0.17    0.39    0.00    0.00      -4.36   -0.26    0.59
#  41   -1.97   -0.11    0.02   -0.26    0.20    0.00    0.00      -2.13   -0.53    0.40
#  42   -0.40   -0.22    0.02    0.03   -0.05    0.00    0.00      -0.63    0.10   -0.20
#  43    1.19   -0.60    0.58    0.03   -0.08    0.00    0.00       1.11    0.08   -0.24
#  44   -0.51   -0.18    0.03    0.02   -0.04    0.00    0.00      -0.69    0.12   -0.26
#  45   -0.36   -0.46    0.29    0.05   -0.07    0.00    0.00      -0.56    0.19   -0.28
#  46   -0.41   -0.15    0.01    0.02   -0.04    0.00    0.00      -0.57    0.11   -0.26
#  47   -0.97   -0.17    0.01    0.03   -0.05    0.00    0.00      -1.15    0.15   -0.25
#  48   -0.82   -0.31    0.08    0.06   -0.08    0.00    0.00      -1.06    0.21   -0.28
#  49   -0.63   -0.23    0.02    0.02   -0.07    0.00    0.00      -0.89    0.07   -0.28
#  50   -0.38   -0.63    0.23    0.01   -0.11    0.00    0.00      -0.88    0.03   -0.28
#  51   -0.17   -0.71    0.38    0.09   -0.13    0.00    0.00      -0.55    0.19   -0.28
#  52   -0.08   -1.01    0.52    0.05   -0.13    0.00    0.00      -0.66    0.09   -0.25

@<TRIPOS>MOLECULE
             1549        99
   52    55     0     0     0



@<TRIPOS>ATOM
      1 C1         10.6610    15.2133    65.4826 C.3        1          -0.1537
      2 C2         12.1121    15.1034    65.0103 C.3        1           0.0531
      3 O1         12.9905    15.3056    66.1192 O.3        1          -0.3156
      4 C3         14.3245    15.2401    65.8695 C.ar       1           0.1366
      5 C4         15.1930    14.7972    66.8720 C.ar       1          -0.1893
      6 C5         16.5327    14.7214    66.6520 C.ar       1          -0.0618
      7 C6         17.0564    15.0919    65.3998 C.ar       1          -0.0811
      8 C7         18.4339    15.0239    65.1423 C.ar       1          -0.0713
      9 C8         18.9132    15.3960    63.8989 C.ar       1          -0.0638
     10 C9         18.0326    15.8395    62.8976 C.ar       1          -0.0953
     11 C10        16.6967    15.9126    63.1277 C.ar       1          -0.1118
     12 C11        16.1773    15.5408    64.3815 C.ar       1          -0.0084
     13 C12        14.7987    15.6023    64.6406 C.ar       1          -0.1567
     14 C13        20.3665    15.3269    63.6212 C.ar       1           0.0388
     15 C14        21.0484    14.0975    63.7070 C.ar       1          -0.1887
     16 C15        20.6408    12.7331    64.0354 C.2        1           0.3656
     17 N1         19.3490    12.3156    64.3684 N.pl3      1          -0.8364
     18 N2         21.7019    11.9734    63.9612 N.2        1          -0.3216
     19 N3         22.8143    12.7403    63.6003 N.pl3      1          -0.5093
     20 C16        22.4284    14.0460    63.4408 C.ar       1           0.1582
     21 C17        23.1065    15.2133    63.0941 C.ar       1          -0.1551
     22 C18        22.4282    16.4088    63.0134 C.ar       1          -0.0100
     23 C19        21.0668    16.4717    63.2688 C.ar       1          -0.1484
     24 C20        23.1738    17.6635    62.6378 C.3        1          -0.0301
     25 C21        24.6485    17.3297    62.4038 C.3        1          -0.1467
     26 C22        22.5743    18.2493    61.3579 C.3        1          -0.1394
     27 C23        23.0557    18.6852    63.7706 C.3        1          -0.1397
     28 H1          9.9909    15.0591    64.6366 H          1           0.0671
     29 H2         10.4676    14.4558    66.2420 H          1           0.0671
     30 H3         10.4904    16.2034    65.9053 H          1           0.0796
     31 H4         12.2827    14.1134    64.5875 H          1           0.0628
     32 H5         12.3053    15.8611    64.2510 H          1           0.0628
     33 H6         14.7943    14.5120    67.8344 H          1           0.1312
     34 H7         17.1922    14.3783    67.4354 H          1           0.1332
     35 H8         19.1148    14.6841    65.9086 H          1           0.1311
     36 H9         18.4238    16.1262    61.9326 H          1           0.1278
     37 H10        16.0324    16.2557    62.3483 H          1           0.1326
     38 H11        14.1169    15.9381    63.8733 H          1           0.1357
     39 H12        18.6235    12.9588    64.3964 H          1           0.4117
     40 H13        19.1780    11.3826    64.5715 H          1           0.4053
     41 H14        23.7158    12.4021    63.4815 H          1           0.4405
     42 H15        24.1661    15.1799    62.8885 H          1           0.1323
     43 H16        20.5496    17.4171    63.1967 H          1           0.1278
     44 H17        25.1878    18.2371    62.1322 H          1           0.0596
     45 H18        25.0758    16.9123    63.3157 H          1           0.0603
     46 H19        24.7327    16.6017    61.5969 H          1           0.0597
     47 H20        23.1136    19.1567    61.0864 H          1           0.0587
     48 H21        22.6585    17.5214    60.5510 H          1           0.0606
     49 H22        21.5237    18.4872    61.5247 H          1           0.0575
     50 H23        23.5950    19.5927    63.4989 H          1           0.0576
     51 H24        22.0051    18.9230    63.9373 H          1           0.0605
     52 H25        23.4830    18.2678    64.6823 H          1           0.0590
@<TRIPOS>BOND
     1    1    2 1
     2    1   28 1
     3    1   29 1
     4    1   30 1
     5    2    3 1
     6    2   31 1
     7    2   32 1
     8    3    4 1
     9    4   13 ar
    10    4    5 ar
    11    5    6 ar
    12    5   33 1
    13    6    7 ar
    14    6   34 1
    15    7   12 ar
    16    7    8 ar
    17    8    9 ar
    18    8   35 1
    19    9   10 ar
    20    9   14 1
    21   10   11 ar
    22   10   36 1
    23   11   12 ar
    24   11   37 1
    25   12   13 ar
    26   13   38 1
    27   14   23 ar
    28   14   15 ar
    29   15   20 ar
    30   15   16 1
    31   16   17 1
    32   16   18 2
    33   17   39 1
    34   17   40 1
    35   18   19 1
    36   19   20 1
    37   19   41 1
    38   20   21 ar
    39   21   22 ar
    40   21   42 1
    41   22   23 ar
    42   22   24 1
    43   23   43 1
    44   24   25 1
    45   24   26 1
    46   24   27 1
    47   25   44 1
    48   25   45 1
    49   25   46 1
    50   26   47 1
    51   26   48 1
    52   26   49 1
    53   27   50 1
    54   27   51 1
    55   27   52 1
##########                 Name:                 1549
##########          Protonation:                   99
##########               SMILES:   CCOc1ccc2cc(ccc2c1)c3cc(cc4c3c(n[nH]4)N)C(C)(C)C
##########            Long Name:   6-tert-butyl-4-(6-ethoxy-2-naphthyl)-1H-indazol-3-amine
##########          FlexRecCode: 1
##########               Number:                   54
##########   Ligand Source File: /raid1/people/rgc/Examples/tdt/part3/ligand22set/build/ligand22set-0000001.db2.g
##########           GlobalRank: 6
##########                 Rank:                    2
##########               Setnum:                   26
##########             Matchnum:                 1963
##########                Cloud:                    1
##########        Electrostatic:           -10.440329
##########        Van der Waals:           -38.177719
##########  Ligand Polar Desolv:             4.426558
########## Ligand Apolar Desolv:            -5.134055
##########      Internal Energy:             0.000000
##########      Receptor Energy: 0.0
########## Receptor Desolvation:             0.000000
########## Receptor Hydrophobic:             0.000000
##########         Total Energy: -49.33
##########        Ligand Charge:             0.000000
##########            Arbitrary:    +999.9990
##########     heavy atom count:   27
##########           pose count:   10
##########        Ligand Energy:             0.000000
# num electro vdwattr vdwrepu polsolv apolsol rdesolv rhydroe totalscore fullpol fullapo
#   1   -0.90   -1.98    1.43   -0.17   -0.13    0.00    0.00      -1.76   -0.28   -0.21
#   2    0.42   -1.36    0.25    0.03   -0.07    0.00    0.00      -0.73    0.04   -0.11
#   3   -2.83   -2.13    0.53    0.56    0.57    0.00    0.00      -3.29    0.86    0.88
#   4    1.34   -2.51    0.88   -0.17   -0.20    0.00    0.00      -0.67   -0.26   -0.31
#   5   -1.07   -3.55    1.19   -0.01   -0.28    0.00    0.00      -3.71   -0.01   -0.43
#   6   -0.29   -3.36    1.02   -0.02   -0.30    0.00    0.00      -2.95   -0.03   -0.46
#   7   -0.86   -2.47    0.67    0.08   -0.26    0.00    0.00      -2.84    0.12   -0.40
#   8   -0.72   -2.12    0.37    0.03   -0.26    0.00    0.00      -2.70    0.05   -0.43
#   9   -0.78   -1.83    0.28    0.07   -0.19    0.00    0.00      -2.46    0.12   -0.34
#  10   -1.32   -3.04    1.40    0.08   -0.18    0.00    0.00      -3.06    0.13   -0.31
#  11   -1.50   -3.62    1.59    0.06   -0.27    0.00    0.00      -3.73    0.10   -0.45
#  12   -0.11   -2.83    1.39    0.04   -0.24    0.00    0.00      -1.76    0.06   -0.40
#  13   -1.86   -2.80    1.89    0.29   -0.27    0.00    0.00      -2.76    0.47   -0.45
#  14    0.31   -1.65    0.29   -0.04   -0.19    0.00    0.00      -1.28   -0.08   -0.37
#  15   -0.84   -1.71    0.29    0.58   -0.25    0.00    0.00      -1.94    0.98   -0.43
#  16    1.16   -2.81    0.87   -1.11   -1.50    0.00    0.00      -3.38   -1.72   -2.32
#  17    0.49   -5.14    4.70    1.11    0.55    0.00    0.00       1.72    1.73    0.86
#  18   -2.10   -5.37    4.08    1.50    0.82    0.00    0.00      -1.08    2.27    1.24
#  19   -1.36   -3.51    1.47    1.17    0.42    0.00    0.00      -1.80    2.01    0.73
#  20    0.30   -1.90    0.49   -0.27   -0.42    0.00    0.00      -1.80   -0.51   -0.80
#  21    0.05   -1.56    0.39    0.10   -0.18    0.00    0.00      -1.20    0.23   -0.42
#  22    0.00   -1.43    0.24    0.00   -0.14    0.00    0.00      -1.34    0.00   -0.34
#  23   -1.00   -1.97    0.66    0.07   -0.17    0.00    0.00      -2.42    0.16   -0.38
#  24    0.15   -0.79    0.06   -0.02   -0.03    0.00    0.00      -0.63   -0.04   -0.08
#  25    1.00   -0.76    0.11   -0.10   -0.05    0.00    0.00       0.20   -0.31   -0.14
#  26    1.58   -0.71    0.05   -0.13   -0.07    0.00    0.00       0.71   -0.29   -0.17
#  27    0.49   -2.15    0.78   -0.10   -0.08    0.00    0.00      -1.07   -0.21   -0.17
#  28    0.26   -0.47    0.13    0.03   -0.15    0.00    0.00      -0.19    0.05   -0.28
#  29    0.39   -0.78    0.94    0.03   -0.16    0.00    0.00       0.42    0.06   -0.28
#  30    0.50   -1.33    3.58    0.26   -0.16    0.00    0.00       2.85    0.46   -0.28
#  31    0.49   -0.46    0.24    0.08   -0.11    0.00    0.00       0.24    0.20   -0.27
#  32    0.52   -0.48    0.13    0.10   -0.13    0.00    0.00       0.14    0.21   -0.27
#  33    0.24   -1.31    1.36    0.27   -0.14    0.00    0.00       0.42    0.43   -0.22
#  34   -0.02   -0.86    0.23    0.38   -0.18    0.00    0.00      -0.44    0.60   -0.28
#  35    0.97   -0.57    0.22    0.10   -0.14    0.00    0.00       0.58    0.19   -0.28
#  36    1.22   -0.96    1.33   -0.10   -0.14    0.00    0.00       1.35   -0.19   -0.28
#  37    0.83   -1.38    1.58    0.10   -0.17    0.00    0.00       0.95    0.16   -0.28
#  38    1.31   -0.55    0.16   -0.13   -0.14    0.00    0.00       0.64   -0.27   -0.28
#  39    1.35   -0.08    0.01   -0.27    0.18    0.00    0.00       1.18   -0.53    0.36
#  40   -4.89   -0.26    0.16   -0.17    0.40    0.00    0.00      -4.77   -0.26    0.59
#  41   -0.87   -0.08    0.01   -0.27    0.20    0.00    0.00      -1.01   -0.53    0.40
#  42   -0.32   -0.23    0.02    0.03   -0.05    0.00    0.00      -0.56    0.10   -0.20
#  43    1.90   -0.95    2.12    0.03   -0.09    0.00    0.00       3.01    0.08   -0.24
#  44   -0.52   -0.20    0.03    0.02   -0.04    0.00    0.00      -0.71    0.12   -0.26
#  45   -0.32   -0.49    0.28    0.05   -0.07    0.00    0.00      -0.56    0.19   -0.28
#  46   -0.41   -0.15    0.01    0.02   -0.04    0.00    0.00      -0.58    0.11   -0.26
#  47   -0.95   -0.18    0.01    0.03   -0.05    0.00    0.00      -1.14    0.15   -0.25
#  48   -0.78   -0.28    0.06    0.06   -0.08    0.00    0.00      -1.02    0.21   -0.28
#  49   -0.56   -0.28    0.06    0.02   -0.08    0.00    0.00      -0.85    0.07   -0.28
#  50   -0.36   -0.76    0.33    0.01   -0.12    0.00    0.00      -0.90    0.03   -0.28
#  51   -0.11   -0.98    1.13    0.10   -0.14    0.00    0.00       0.00    0.19   -0.28
#  52   -0.04   -1.07    0.56    0.05   -0.13    0.00    0.00      -0.63    0.09   -0.25

@<TRIPOS>MOLECULE
             1549        99
   52    55     0     0     0



@<TRIPOS>ATOM
      1 C1         10.3909    15.1451    65.6436 C.3        1          -0.1537
      2 C2         11.8416    15.0528    65.1665 C.3        1           0.0531
      3 O1         12.7212    15.2507    66.2752 O.3        1          -0.3156
      4 C3         14.0550    15.1994    66.0215 C.ar       1           0.1366
      5 C4         14.9300    14.7534    67.0171 C.ar       1          -0.1893
      6 C5         16.2697    14.6914    66.7928 C.ar       1          -0.0618
      7 C6         16.7869    15.0797    65.5433 C.ar       1          -0.0811
      8 C7         18.1643    15.0264    65.2816 C.ar       1          -0.0713
      9 C8         18.6370    15.4158    64.0411 C.ar       1          -0.0638
     10 C9         17.7500    15.8622    63.0468 C.ar       1          -0.0953
     11 C10        16.4141    15.9214    63.2810 C.ar       1          -0.1118
     12 C11        15.9013    15.5319    64.5321 C.ar       1          -0.0084
     13 C12        14.5229    15.5787    64.7953 C.ar       1          -0.1567
     14 C13        20.0902    15.3622    63.7589 C.ar       1           0.0388
     15 C14        20.7829    14.1379    63.8299 C.ar       1          -0.1887
     16 C15        20.3879    12.7666    64.1448 C.2        1           0.3656
     17 N1         19.1005    12.3344    64.4766 N.pl3      1          -0.8364
     18 N2         21.4553    12.0169    64.0599 N.2        1          -0.3216
     19 N3         22.5601    12.7972    63.7043 N.pl3      1          -0.5093
     20 C16        22.1625    14.1012    63.5597 C.ar       1           0.1582
     21 C17        22.8296    15.2778    63.2237 C.ar       1          -0.1551
     22 C18        22.1409    16.4683    63.1574 C.ar       1          -0.0100
     23 C19        20.7797    16.5167    63.4170 C.ar       1          -0.1484
     24 C20        22.8747    17.7332    62.7933 C.3        1          -0.0301
     25 C21        24.3515    17.4147    62.5520 C.3        1          -0.1467
     26 C22        22.2667    18.3274    61.5213 C.3        1          -0.1394
     27 C23        22.7508    18.7418    63.9372 C.3        1          -0.1397
     28 H1          9.7200    14.9940    64.7978 H          1           0.0671
     29 H2         10.2061    14.3779    66.3954 H          1           0.0671
     30 H3         10.2129    16.1291    66.0773 H          1           0.0796
     31 H4         12.0197    14.0688    64.7328 H          1           0.0628
     32 H5         12.0264    15.8201    64.4148 H          1           0.0628
     33 H6         14.5363    14.4546    67.9773 H          1           0.1312
     34 H7         16.9342    14.3458    67.5709 H          1           0.1332
     35 H8         18.8500    14.6843    66.0425 H          1           0.1311
     36 H9         18.1362    16.1625    62.0839 H          1           0.1278
     37 H10        15.7449    16.2670    62.5070 H          1           0.1326
     38 H11        13.8362    15.9167    64.0333 H          1           0.1357
     39 H12        18.3696    12.9711    64.5133 H          1           0.4117
     40 H13        18.9382    11.3979    64.6703 H          1           0.4053
     41 H14        23.4641    12.4680    63.5796 H          1           0.4405
     42 H15        23.8890    15.2557    63.0151 H          1           0.1323
     43 H16        20.2541    17.4583    63.3562 H          1           0.1278
     44 H17        24.8823    18.3296    62.2888 H          1           0.0596
     45 H18        24.7848    16.9914    63.4584 H          1           0.0603
     46 H19        24.4399    16.6960    61.7372 H          1           0.0597
     47 H20        22.7976    19.2423    61.2581 H          1           0.0587
     48 H21        22.3551    17.6088    60.7065 H          1           0.0606
     49 H22        21.2146    18.5544    61.6932 H          1           0.0575
     50 H23        23.2816    19.6568    63.6738 H          1           0.0576
     51 H24        21.6986    18.9687    64.1091 H          1           0.0605
     52 H25        23.1840    18.3185    64.8433 H          1           0.0590
@<TRIPOS>BOND
     1    1    2 1
     2    1   28 1
     3    1   29 1
     4    1   30 1
     5    2    3 1
     6    2   31 1
     7    2   32 1
     8    3    4 1
     9    4   13 ar
    10    4    5 ar
    11    5    6 ar
    12    5   33 1
    13    6    7 ar
    14    6   34 1
    15    7   12 ar
    16    7    8 ar
    17    8    9 ar
    18    8   35 1
    19    9   10 ar
    20    9   14 1
    21   10   11 ar
    22   10   36 1
    23   11   12 ar
    24   11   37 1
    25   12   13 ar
    26   13   38 1
    27   14   23 ar
    28   14   15 ar
    29   15   20 ar
    30   15   16 1
    31   16   17 1
    32   16   18 2
    33   17   39 1
    34   17   40 1
    35   18   19 1
    36   19   20 1
    37   19   41 1
    38   20   21 ar
    39   21   22 ar
    40   21   42 1
    41   22   23 ar
    42   22   24 1
    43   23   43 1
    44   24   25 1
    45   24   26 1
    46   24   27 1
    47   25   44 1
    48   25   45 1
    49   25   46 1
    50   26   47 1
    51   26   48 1
    52   26   49 1
    53   27   50 1
    54   27   51 1
    55   27   52 1
##########                 Name:                 1549
##########          Protonation:                   99
##########               SMILES:   CCOc1ccc2cc(ccc2c1)c3cc(cc4c3c(n[nH]4)N)C(C)(C)C
##########            Long Name:   6-tert-butyl-4-(6-ethoxy-2-naphthyl)-1H-indazol-3-amine
##########          FlexRecCode: 1
##########               Number:                   54
##########   Ligand Source File: /raid1/people/rgc/Examples/tdt/part3/ligand22set/build/ligand22set-0000001.db2.g
##########           GlobalRank: 6
##########                 Rank:                    3
##########               Setnum:                   24
##########             Matchnum:                 1963
##########                Cloud:                    1
##########        Electrostatic:           -10.471999
##########        Van der Waals:           -37.793514
##########  Ligand Polar Desolv:             4.443662
########## Ligand Apolar Desolv:            -5.146085
##########      Internal Energy:             0.000000
##########      Receptor Energy: 0.0
########## Receptor Desolvation:             0.000000
########## Receptor Hydrophobic:             0.000000
##########         Total Energy: -48.97
##########        Ligand Charge:             0.000000
##########            Arbitrary:    +999.9990
##########     heavy atom count:   27
##########           pose count:   10
##########        Ligand Energy:             0.000000
# num electro vdwattr vdwrepu polsolv apolsol rdesolv rhydroe totalscore fullpol fullapo
#   1   -0.90   -1.98    1.43   -0.17   -0.13    0.00    0.00      -1.76   -0.28   -0.21
#   2    0.42   -1.36    0.25    0.03   -0.07    0.00    0.00      -0.73    0.04   -0.11
#   3   -2.83   -2.13    0.53    0.56    0.57    0.00    0.00      -3.29    0.86    0.88
#   4    1.34   -2.51    0.88   -0.17   -0.20    0.00    0.00      -0.67   -0.26   -0.31
#   5   -1.07   -3.55    1.19   -0.01   -0.28    0.00    0.00      -3.71   -0.01   -0.43
#   6   -0.29   -3.36    1.02   -0.02   -0.30    0.00    0.00      -2.95   -0.03   -0.46
#   7   -0.86   -2.47    0.67    0.08   -0.26    0.00    0.00      -2.84    0.12   -0.40
#   8   -0.72   -2.12    0.37    0.03   -0.26    0.00    0.00      -2.70    0.05   -0.43
#   9   -0.78   -1.83    0.28    0.07   -0.19    0.00    0.00      -2.46    0.12   -0.34
#  10   -1.32   -3.04    1.40    0.08   -0.18    0.00    0.00      -3.06    0.13   -0.31
#  11   -1.50   -3.62    1.59    0.06   -0.27    0.00    0.00      -3.73    0.10   -0.45
#  12   -0.11   -2.83    1.39    0.04   -0.24    0.00    0.00      -1.76    0.06   -0.40
#  13   -1.86   -2.80    1.89    0.29   -0.27    0.00    0.00      -2.76    0.47   -0.45
#  14    0.31   -1.65    0.29   -0.04   -0.19    0.00    0.00      -1.28   -0.08   -0.37
#  15   -0.84   -1.71    0.29    0.58   -0.25    0.00    0.00      -1.94    0.98   -0.43
#  16    1.16   -2.81    0.87   -1.11   -1.50    0.00    0.00      -3.38   -1.72   -2.32
#  17    0.49   -5.14    4.70    1.11    0.55    0.00    0.00       1.72    1.73    0.86
#  18   -2.10   -5.37    4.08    1.50    0.82    0.00    0.00      -1.08    2.27    1.24
#  19   -1.36   -3.51    1.47    1.17    0.42    0.00    0.00      -1.80    2.01    0.73
#  20    0.30   -1.90    0.49   -0.27   -0.42    0.00    0.00      -1.80   -0.51   -0.80
#  21    0.05   -1.56    0.39    0.10   -0.18    0.00    0.00      -1.20    0.23   -0.42
#  22    0.00   -1.43    0.24    0.00   -0.14    0.00    0.00      -1.34    0.00   -0.34
#  23   -1.00   -1.97    0.66    0.07   -0.17    0.00    0.00      -2.42    0.16   -0.38
#  24    0.15   -0.79    0.06   -0.02   -0.03    0.00    0.00      -0.63   -0.04   -0.08
#  25    1.48   -0.64    0.07   -0.11   -0.05    0.00    0.00       0.75   -0.31   -0.14
#  26    1.01   -1.38    0.34   -0.13   -0.08    0.00    0.00      -0.23   -0.29   -0.17
#  27    0.64   -2.23    1.45   -0.09   -0.07    0.00    0.00      -0.30   -0.21   -0.17
#  28    0.26   -0.47    0.13    0.03   -0.15    0.00    0.00      -0.19    0.05   -0.28
#  29    0.39   -0.78    0.94    0.03   -0.16    0.00    0.00       0.42    0.06   -0.28
#  30    0.50   -1.33    3.58    0.26   -0.16    0.00    0.00       2.85    0.46   -0.28
#  31    0.49   -0.46    0.24    0.08   -0.11    0.00    0.00       0.24    0.20   -0.27
#  32    0.52   -0.48    0.13    0.10   -0.13    0.00    0.00       0.14    0.21   -0.27
#  33    0.24   -1.31    1.36    0.27   -0.14    0.00    0.00       0.42    0.43   -0.22
#  34   -0.02   -0.86    0.23    0.38   -0.18    0.00    0.00      -0.44    0.60   -0.28
#  35    0.97   -0.57    0.22    0.10   -0.14    0.00    0.00       0.58    0.19   -0.28
#  36    1.22   -0.96    1.33   -0.10   -0.14    0.00    0.00       1.35   -0.19   -0.28
#  37    0.83   -1.38    1.58    0.10   -0.17    0.00    0.00       0.95    0.16   -0.28
#  38    1.31   -0.55    0.16   -0.13   -0.14    0.00    0.00       0.64   -0.27   -0.28
#  39    1.35   -0.08    0.01   -0.27    0.18    0.00    0.00       1.18   -0.53    0.36
#  40   -4.89   -0.26    0.16   -0.17    0.40    0.00    0.00      -4.77   -0.26    0.59
#  41   -0.87   -0.08    0.01   -0.27    0.20    0.00    0.00      -1.01   -0.53    0.40
#  42   -0.32   -0.23    0.02    0.03   -0.05    0.00    0.00      -0.56    0.10   -0.20
#  43    1.90   -0.95    2.12    0.03   -0.09    0.00    0.00       3.01    0.08   -0.24
#  44   -0.79   -0.14    0.00    0.02   -0.04    0.00    0.00      -0.95    0.12   -0.26
#  45   -0.47   -0.18    0.02    0.03   -0.05    0.00    0.00      -0.64    0.19   -0.28
#  46   -0.74   -0.31    0.09    0.03   -0.07    0.00    0.00      -1.00    0.11   -0.26
#  47   -0.76   -0.48    0.17    0.05   -0.09    0.00    0.00      -1.10    0.15   -0.25
#  48   -0.51   -0.38    0.16    0.06   -0.09    0.00    0.00      -0.75    0.21   -0.28
#  49   -0.15   -0.86    0.69    0.03   -0.14    0.00    0.00      -0.42    0.07   -0.28
#  50   -0.38   -0.73    0.53    0.01   -0.10    0.00    0.00      -0.67    0.03   -0.28
#  51   -0.05   -1.12    0.70    0.10   -0.14    0.00    0.00      -0.51    0.19   -0.28
#  52   -0.30   -0.77    0.76    0.03   -0.08    0.00    0.00      -0.36    0.09   -0.25

@<TRIPOS>MOLECULE
             1549        99
   52    55     0     0     0



@<TRIPOS>ATOM
      1 C1         10.3909    15.1451    65.6436 C.3        1          -0.1537
      2 C2         11.8416    15.0528    65.1665 C.3        1           0.0531
      3 O1         12.7212    15.2507    66.2752 O.3        1          -0.3156
      4 C3         14.0550    15.1994    66.0215 C.ar       1           0.1366
      5 C4         14.9300    14.7534    67.0171 C.ar       1          -0.1893
      6 C5         16.2697    14.6914    66.7928 C.ar       1          -0.0618
      7 C6         16.7869    15.0797    65.5433 C.ar       1          -0.0811
      8 C7         18.1643    15.0264    65.2816 C.ar       1          -0.0713
      9 C8         18.6370    15.4158    64.0411 C.ar       1          -0.0638
     10 C9         17.7500    15.8622    63.0468 C.ar       1          -0.0953
     11 C10        16.4141    15.9214    63.2810 C.ar       1          -0.1118
     12 C11        15.9013    15.5319    64.5321 C.ar       1          -0.0084
     13 C12        14.5229    15.5787    64.7953 C.ar       1          -0.1567
     14 C13        20.0902    15.3622    63.7589 C.ar       1           0.0388
     15 C14        20.7829    14.1379    63.8299 C.ar       1          -0.1887
     16 C15        20.3879    12.7666    64.1448 C.2        1           0.3656
     17 N1         19.1005    12.3344    64.4766 N.pl3      1          -0.8364
     18 N2         21.4553    12.0169    64.0599 N.2        1          -0.3216
     19 N3         22.5601    12.7972    63.7043 N.pl3      1          -0.5093
     20 C16        22.1625    14.1012    63.5597 C.ar       1           0.1582
     21 C17        22.8296    15.2778    63.2237 C.ar       1          -0.1551
     22 C18        22.1409    16.4683    63.1574 C.ar       1          -0.0100
     23 C19        20.7797    16.5167    63.4170 C.ar       1          -0.1484
     24 C20        22.8747    17.7332    62.7933 C.3        1          -0.0301
     25 C21        23.4953    17.5807    61.4032 C.3        1          -0.1467
     26 C22        21.8945    18.9079    62.7882 C.3        1          -0.1394
     27 C23        23.9794    17.9952    63.8190 C.3        1          -0.1397
     28 H1          9.7200    14.9940    64.7978 H          1           0.0671
     29 H2         10.2061    14.3779    66.3954 H          1           0.0671
     30 H3         10.2129    16.1291    66.0773 H          1           0.0796
     31 H4         12.0197    14.0688    64.7328 H          1           0.0628
     32 H5         12.0264    15.8201    64.4148 H          1           0.0628
     33 H6         14.5363    14.4546    67.9773 H          1           0.1312
     34 H7         16.9342    14.3458    67.5709 H          1           0.1332
     35 H8         18.8500    14.6843    66.0425 H          1           0.1311
     36 H9         18.1362    16.1625    62.0839 H          1           0.1278
     37 H10        15.7449    16.2670    62.5070 H          1           0.1326
     38 H11        13.8362    15.9167    64.0333 H          1           0.1357
     39 H12        18.3696    12.9711    64.5133 H          1           0.4117
     40 H13        18.9382    11.3979    64.6703 H          1           0.4053
     41 H14        23.4641    12.4680    63.5796 H          1           0.4405
     42 H15        23.8890    15.2557    63.0151 H          1           0.1323
     43 H16        20.2541    17.4583    63.3562 H          1           0.1278
     44 H17        24.0259    18.4957    61.1399 H          1           0.0596
     45 H18        24.1937    16.7439    61.4069 H          1           0.0603
     46 H19        22.7083    17.3940    60.6724 H          1           0.0597
     47 H20        22.4252    19.8227    62.5249 H          1           0.0587
     48 H21        21.1075    18.7213    62.0574 H          1           0.0606
     49 H22        21.4524    19.0166    63.7786 H          1           0.0575
     50 H23        24.5101    18.9101    63.5556 H          1           0.0576
     51 H24        23.5373    18.1037    64.8093 H          1           0.0605
     52 H25        24.6777    17.1583    63.8226 H          1           0.0590
@<TRIPOS>BOND
     1    1    2 1
     2    1   28 1
     3    1   29 1
     4    1   30 1
     5    2    3 1
     6    2   31 1
     7    2   32 1
     8    3    4 1
     9    4   13 ar
    10    4    5 ar
    11    5    6 ar
    12    5   33 1
    13    6    7 ar
    14    6   34 1
    15    7   12 ar
    16    7    8 ar
    17    8    9 ar
    18    8   35 1
    19    9   10 ar
    20    9   14 1
    21   10   11 ar
    22   10   36 1
    23   11   12 ar
    24   11   37 1
    25   12   13 ar
    26   13   38 1
    27   14   23 ar
    28   14   15 ar
    29   15   20 ar
    30   15   16 1
    31   16   17 1
    32   16   18 2
    33   17   39 1
    34   17   40 1
    35   18   19 1
    36   19   20 1
    37   19   41 1
    38   20   21 ar
    39   21   22 ar
    40   21   42 1
    41   22   23 ar
    42   22   24 1
    43   23   43 1
    44   24   25 1
    45   24   26 1
    46   24   27 1
    47   25   44 1
    48   25   45 1
    49   25   46 1
    50   26   47 1
    51   26   48 1
    52   26   49 1
    53   27   50 1
    54   27   51 1
    55   27   52 1
##########                 Name:                 1549
##########          Protonation:                   99
##########               SMILES:   CCOc1ccc2cc(ccc2c1)c3cc(cc4c3c(n[nH]4)N)C(C)(C)C
##########            Long Name:   6-tert-butyl-4-(6-ethoxy-2-naphthyl)-1H-indazol-3-amine
##########          FlexRecCode: 1
##########               Number:                   54
##########   Ligand Source File: /raid1/people/rgc/Examples/tdt/part3/ligand22set/build/ligand22set-0000001.db2.g
##########           GlobalRank: 6
##########                 Rank:                    4
##########               Setnum:                   24
##########             Matchnum:                 2808
##########                Cloud:                    1
##########        Electrostatic:           -11.351517
##########        Van der Waals:           -36.776634
##########  Ligand Polar Desolv:             4.380728
########## Ligand Apolar Desolv:            -5.033039
##########      Internal Energy:             0.000000
##########      Receptor Energy: 0.0
########## Receptor Desolvation:             0.000000
########## Receptor Hydrophobic:             0.000000
##########         Total Energy: -48.78
##########        Ligand Charge:             0.000000
##########            Arbitrary:    +999.9990
##########     heavy atom count:   27
##########           pose count:   10
##########        Ligand Energy:             0.000000
# num electro vdwattr vdwrepu polsolv apolsol rdesolv rhydroe totalscore fullpol fullapo
#   1   -0.96   -1.81    0.95   -0.17   -0.13    0.00    0.00      -2.12   -0.28   -0.21
#   2    0.44   -1.36    0.28    0.03   -0.07    0.00    0.00      -0.69    0.04   -0.11
#   3   -2.93   -1.91    0.34    0.56    0.58    0.00    0.00      -3.37    0.86    0.88
#   4    1.40   -2.55    1.06   -0.17   -0.20    0.00    0.00      -0.46   -0.26   -0.31
#   5   -1.13   -3.34    1.02   -0.01   -0.28    0.00    0.00      -3.73   -0.01   -0.43
#   6   -0.32   -3.18    0.90   -0.02   -0.30    0.00    0.00      -2.93   -0.03   -0.46
#   7   -0.89   -2.37    0.60    0.08   -0.26    0.00    0.00      -2.84    0.12   -0.40
#   8   -0.72   -2.08    0.39    0.03   -0.26    0.00    0.00      -2.64    0.05   -0.43
#   9   -0.74   -1.76    0.26    0.07   -0.19    0.00    0.00      -2.37    0.12   -0.34
#  10   -1.24   -3.03    1.51    0.07   -0.18    0.00    0.00      -2.86    0.13   -0.31
#  11   -1.50   -3.72    1.88    0.06   -0.27    0.00    0.00      -3.55    0.10   -0.45
#  12   -0.12   -2.78    1.20    0.04   -0.24    0.00    0.00      -1.90    0.06   -0.40
#  13   -1.92   -2.92    1.95    0.28   -0.27    0.00    0.00      -2.87    0.47   -0.45
#  14    0.26   -1.61    0.29   -0.04   -0.19    0.00    0.00      -1.29   -0.08   -0.37
#  15   -0.73   -1.74    0.33    0.57   -0.25    0.00    0.00      -1.82    0.98   -0.43
#  16    1.29   -2.78    0.75   -1.11   -1.50    0.00    0.00      -3.34   -1.72   -2.32
#  17    0.41   -4.61    3.39    1.12    0.56    0.00    0.00       0.87    1.73    0.86
#  18   -2.50   -6.19    6.71    1.48    0.81    0.00    0.00       0.31    2.27    1.24
#  19   -0.75   -3.98    2.36    1.14    0.41    0.00    0.00      -0.81    2.01    0.73
#  20    0.17   -1.97    0.57   -0.26   -0.41    0.00    0.00      -1.89   -0.51   -0.80
#  21    0.18   -1.53    0.39    0.10   -0.18    0.00    0.00      -1.05    0.23   -0.42
#  22    0.01   -1.35    0.23    0.00   -0.14    0.00    0.00      -1.26    0.00   -0.34
#  23   -0.70   -1.73    0.42    0.07   -0.17    0.00    0.00      -2.10    0.16   -0.38
#  24    0.18   -0.73    0.05   -0.02   -0.03    0.00    0.00      -0.55   -0.04   -0.08
#  25    1.51   -0.64    0.07   -0.10   -0.05    0.00    0.00       0.80   -0.31   -0.14
#  26    1.14   -1.10    0.17   -0.13   -0.07    0.00    0.00       0.01   -0.29   -0.17
#  27    0.79   -2.30    2.10   -0.08   -0.07    0.00    0.00       0.44   -0.21   -0.17
#  28    0.27   -0.45    0.10    0.03   -0.15    0.00    0.00      -0.19    0.05   -0.28
#  29    0.41   -0.68    0.59    0.03   -0.15    0.00    0.00       0.20    0.06   -0.28
#  30    0.54   -1.23    2.99    0.25   -0.15    0.00    0.00       2.40    0.46   -0.28
#  31    0.52   -0.56    0.56    0.08   -0.11    0.00    0.00       0.49    0.20   -0.27
#  32    0.54   -0.49    0.13    0.10   -0.13    0.00    0.00       0.15    0.21   -0.27
#  33    0.23   -1.08    0.75    0.27   -0.14    0.00    0.00       0.03    0.43   -0.22
#  34    0.11   -0.81    0.20    0.38   -0.18    0.00    0.00      -0.30    0.60   -0.28
#  35    0.99   -0.60    0.31    0.09   -0.14    0.00    0.00       0.66    0.19   -0.28
#  36    1.05   -0.93    1.23   -0.10   -0.14    0.00    0.00       1.11   -0.19   -0.28
#  37    0.97   -1.43    1.73    0.10   -0.18    0.00    0.00       1.20    0.16   -0.28
#  38    1.29   -0.62    0.22   -0.14   -0.14    0.00    0.00       0.61   -0.27   -0.28
#  39    1.24   -0.07    0.01   -0.27    0.19    0.00    0.00       1.09   -0.53    0.36
#  40   -4.48   -0.25    0.15   -0.17    0.39    0.00    0.00      -4.36   -0.26    0.59
#  41   -1.97   -0.11    0.02   -0.26    0.20    0.00    0.00      -2.13   -0.53    0.40
#  42   -0.40   -0.22    0.02    0.03   -0.05    0.00    0.00      -0.63    0.10   -0.20
#  43    1.19   -0.60    0.58    0.03   -0.08    0.00    0.00       1.11    0.08   -0.24
#  44   -0.78   -0.14    0.01    0.02   -0.04    0.00    0.00      -0.94    0.12   -0.26
#  45   -0.47   -0.17    0.01    0.03   -0.05    0.00    0.00      -0.64    0.19   -0.28
#  46   -0.77   -0.33    0.12    0.03   -0.07    0.00    0.00      -1.03    0.11   -0.26
#  47   -0.77   -0.36    0.09    0.04   -0.07    0.00    0.00      -1.08    0.15   -0.25
#  48   -0.58   -0.28    0.05    0.06   -0.08    0.00    0.00      -0.83    0.21   -0.28
#  49   -0.22   -0.63    0.26    0.03   -0.13    0.00    0.00      -0.68    0.07   -0.28
#  50   -0.44   -0.73    0.75    0.01   -0.09    0.00    0.00      -0.50    0.03   -0.28
#  51   -0.11   -1.18    1.00    0.09   -0.14    0.00    0.00      -0.34    0.19   -0.28
#  52   -0.35   -0.78    0.97    0.03   -0.07    0.00    0.00      -0.20    0.09   -0.25

@<TRIPOS>MOLECULE
             1549        99
   52    55     0     0     0



@<TRIPOS>ATOM
      1 C1         10.6610    15.2133    65.4826 C.3        1          -0.1537
      2 C2         12.1121    15.1034    65.0103 C.3        1           0.0531
      3 O1         12.9905    15.3056    66.1192 O.3        1          -0.3156
      4 C3         14.3245    15.2401    65.8695 C.ar       1           0.1366
      5 C4         15.1930    14.7972    66.8720 C.ar       1          -0.1893
      6 C5         16.5327    14.7214    66.6520 C.ar       1          -0.0618
      7 C6         17.0564    15.0919    65.3998 C.ar       1          -0.0811
      8 C7         18.4339    15.0239    65.1423 C.ar       1          -0.0713
      9 C8         18.9132    15.3960    63.8989 C.ar       1          -0.0638
     10 C9         18.0326    15.8395    62.8976 C.ar       1          -0.0953
     11 C10        16.6967    15.9126    63.1277 C.ar       1          -0.1118
     12 C11        16.1773    15.5408    64.3815 C.ar       1          -0.0084
     13 C12        14.7987    15.6023    64.6406 C.ar       1          -0.1567
     14 C13        20.3665    15.3269    63.6212 C.ar       1           0.0388
     15 C14        21.0484    14.0975    63.7070 C.ar       1          -0.1887
     16 C15        20.6408    12.7331    64.0354 C.2        1           0.3656
     17 N1         19.3490    12.3156    64.3684 N.pl3      1          -0.8364
     18 N2         21.7019    11.9734    63.9612 N.2        1          -0.3216
     19 N3         22.8143    12.7403    63.6003 N.pl3      1          -0.5093
     20 C16        22.4284    14.0460    63.4408 C.ar       1           0.1582
     21 C17        23.1065    15.2133    63.0941 C.ar       1          -0.1551
     22 C18        22.4282    16.4088    63.0134 C.ar       1          -0.0100
     23 C19        21.0668    16.4717    63.2688 C.ar       1          -0.1484
     24 C20        23.1738    17.6635    62.6378 C.3        1          -0.0301
     25 C21        23.7966    17.4909    61.2510 C.3        1          -0.1467
     26 C22        22.2038    18.8465    62.6176 C.3        1          -0.1394
     27 C23        24.2781    17.9268    63.6635 C.3        1          -0.1397
     28 H1          9.9909    15.0591    64.6366 H          1           0.0671
     29 H2         10.4676    14.4558    66.2420 H          1           0.0671
     30 H3         10.4904    16.2034    65.9053 H          1           0.0796
     31 H4         12.2827    14.1134    64.5875 H          1           0.0628
     32 H5         12.3053    15.8611    64.2510 H          1           0.0628
     33 H6         14.7943    14.5120    67.8344 H          1           0.1312
     34 H7         17.1922    14.3783    67.4354 H          1           0.1332
     35 H8         19.1148    14.6841    65.9086 H          1           0.1311
     36 H9         18.4238    16.1262    61.9326 H          1           0.1278
     37 H10        16.0324    16.2557    62.3483 H          1           0.1326
     38 H11        14.1169    15.9381    63.8733 H          1           0.1357
     39 H12        18.6235    12.9588    64.3964 H          1           0.4117
     40 H13        19.1780    11.3826    64.5715 H          1           0.4053
     41 H14        23.7158    12.4021    63.4815 H          1           0.4405
     42 H15        24.1661    15.1799    62.8885 H          1           0.1323
     43 H16        20.5496    17.4171    63.1967 H          1           0.1278
     44 H17        24.3358    18.3984    60.9794 H          1           0.0596
     45 H18        24.4878    16.6481    61.2654 H          1           0.0603
     46 H19        23.0099    17.3032    60.5202 H          1           0.0597
     47 H20        22.7431    19.7538    62.3460 H          1           0.0587
     48 H21        21.4171    18.6589    61.8868 H          1           0.0606
     49 H22        21.7601    18.9694    63.6056 H          1           0.0575
     50 H23        24.8174    18.8343    63.3919 H          1           0.0576
     51 H24        23.8346    18.0497    64.6515 H          1           0.0605
     52 H25        24.9692    17.0840    63.6778 H          1           0.0590
@<TRIPOS>BOND
     1    1    2 1
     2    1   28 1
     3    1   29 1
     4    1   30 1
     5    2    3 1
     6    2   31 1
     7    2   32 1
     8    3    4 1
     9    4   13 ar
    10    4    5 ar
    11    5    6 ar
    12    5   33 1
    13    6    7 ar
    14    6   34 1
    15    7   12 ar
    16    7    8 ar
    17    8    9 ar
    18    8   35 1
    19    9   10 ar
    20    9   14 1
    21   10   11 ar
    22   10   36 1
    23   11   12 ar
    24   11   37 1
    25   12   13 ar
    26   13   38 1
    27   14   23 ar
    28   14   15 ar
    29   15   20 ar
    30   15   16 1
    31   16   17 1
    32   16   18 2
    33   17   39 1
    34   17   40 1
    35   18   19 1
    36   19   20 1
    37   19   41 1
    38   20   21 ar
    39   21   22 ar
    40   21   42 1
    41   22   23 ar
    42   22   24 1
    43   23   43 1
    44   24   25 1
    45   24   26 1
    46   24   27 1
    47   25   44 1
    48   25   45 1
    49   25   46 1
    50   26   47 1
    51   26   48 1
    52   26   49 1
    53   27   50 1
    54   27   51 1
    55   27   52 1
##########                 Name:                 1549
##########          Protonation:                   99
##########               SMILES:   CCOc1ccc2cc(ccc2c1)c3cc(cc4c3c(n[nH]4)N)C(C)(C)C
##########            Long Name:   6-tert-butyl-4-(6-ethoxy-2-naphthyl)-1H-indazol-3-amine
##########          FlexRecCode: 1
##########               Number:                   54
##########   Ligand Source File: /raid1/people/rgc/Examples/tdt/part3/ligand22set/build/ligand22set-0000001.db2.g
##########           GlobalRank: 7
##########                 Rank:                    5
##########               Setnum:                   26
##########             Matchnum:                 1951
##########                Cloud:                    1
##########        Electrostatic:           -10.689442
##########        Van der Waals:           -31.701408
##########  Ligand Polar Desolv:             4.364439
########## Ligand Apolar Desolv:            -5.072578
##########      Internal Energy:             0.000000
##########      Receptor Energy: 0.0
########## Receptor Desolvation:             0.000000
########## Receptor Hydrophobic:             0.000000
##########         Total Energy: -43.1
##########        Ligand Charge:             0.000000
##########            Arbitrary:    +999.9990
##########     heavy atom count:   27
##########           pose count:   10
##########        Ligand Energy:             0.000000
# num electro vdwattr vdwrepu polsolv apolsol rdesolv rhydroe totalscore fullpol fullapo
#   1   -0.91   -1.75    0.82   -0.18   -0.13    0.00    0.00      -2.15   -0.28   -0.21
#   2    0.44   -1.40    0.31    0.03   -0.07    0.00    0.00      -0.69    0.04   -0.11
#   3   -2.97   -1.78    0.28    0.56    0.57    0.00    0.00      -3.34    0.86    0.88
#   4    1.44   -2.55    1.26   -0.17   -0.20    0.00    0.00      -0.21   -0.26   -0.31
#   5   -1.28   -3.17    0.94   -0.01   -0.28    0.00    0.00      -3.79   -0.01   -0.43
#   6   -0.34   -3.16    0.90   -0.02   -0.30    0.00    0.00      -2.92   -0.03   -0.46
#   7   -0.88   -2.38    0.61    0.08   -0.26    0.00    0.00      -2.84    0.12   -0.40
#   8   -0.70   -2.14    0.42    0.03   -0.26    0.00    0.00      -2.65    0.05   -0.43
#   9   -0.71   -1.75    0.26    0.07   -0.19    0.00    0.00      -2.33    0.12   -0.34
#  10   -1.23   -2.74    1.13    0.07   -0.17    0.00    0.00      -2.95    0.13   -0.31
#  11   -1.51   -3.64    1.88    0.06   -0.27    0.00    0.00      -3.49    0.10   -0.45
#  12   -0.12   -2.79    1.19    0.04   -0.24    0.00    0.00      -1.92    0.06   -0.40
#  13   -1.91   -3.00    1.95    0.28   -0.27    0.00    0.00      -2.96    0.47   -0.45
#  14    0.26   -1.70    0.37   -0.04   -0.19    0.00    0.00      -1.30   -0.08   -0.37
#  15   -0.79   -1.86    0.35    0.58   -0.25    0.00    0.00      -1.98    0.98   -0.43
#  16    1.30   -3.25    1.56   -1.12   -1.51    0.00    0.00      -3.01   -1.72   -2.32
#  17    0.87   -5.07    4.33    1.12    0.56    0.00    0.00       1.81    1.73    0.86
#  18   -2.49   -7.09    8.65    1.49    0.81    0.00    0.00       1.37    2.27    1.24
#  19   -1.48   -4.54    3.50    1.16    0.42    0.00    0.00      -0.95    2.01    0.73
#  20    0.31   -2.19    0.71   -0.27   -0.42    0.00    0.00      -1.87   -0.51   -0.80
#  21    0.02   -1.75    0.43    0.10   -0.19    0.00    0.00      -1.39    0.23   -0.42
#  22    0.00   -1.51    0.25    0.00   -0.14    0.00    0.00      -1.40    0.00   -0.34
#  23   -0.71   -1.88    0.57    0.07   -0.17    0.00    0.00      -2.12    0.16   -0.38
#  24    0.14   -0.90    0.10   -0.02   -0.03    0.00    0.00      -0.71   -0.04   -0.08
#  25    0.93   -1.20    0.61   -0.10   -0.04    0.00    0.00       0.20   -0.31   -0.14
#  26    1.40   -0.63    0.04   -0.12   -0.07    0.00    0.00       0.61   -0.29   -0.17
#  27    0.40   -2.54    1.11   -0.10   -0.08    0.00    0.00      -1.21   -0.21   -0.17
#  28    0.20   -0.52    0.14    0.03   -0.15    0.00    0.00      -0.29    0.05   -0.28
#  29    0.39   -0.47    0.17    0.03   -0.15    0.00    0.00      -0.04    0.06   -0.28
#  30    0.53   -1.58    7.27    0.25   -0.15    0.00    0.00       6.31    0.46   -0.28
#  31    0.54   -0.58    0.65    0.08   -0.11    0.00    0.00       0.59    0.20   -0.27
#  32    0.54   -0.56    0.16    0.11   -0.14    0.00    0.00       0.10    0.21   -0.27
#  33    0.45   -0.93    0.47    0.26   -0.13    0.00    0.00       0.11    0.43   -0.22
#  34    0.09   -0.80    0.20    0.38   -0.18    0.00    0.00      -0.31    0.60   -0.28
#  35    0.96   -0.64    0.35    0.10   -0.14    0.00    0.00       0.63    0.19   -0.28
#  36    1.05   -0.71    0.54   -0.09   -0.13    0.00    0.00       0.65   -0.19   -0.28
#  37    1.09   -1.47    2.24    0.10   -0.18    0.00    0.00       1.78    0.16   -0.28
#  38    1.21   -0.71    0.33   -0.14   -0.15    0.00    0.00       0.54   -0.27   -0.28
#  39    1.07   -0.06    0.00   -0.28    0.19    0.00    0.00       0.92   -0.53    0.36
#  40   -5.11   -0.30    0.22   -0.17    0.40    0.00    0.00      -4.96   -0.26    0.59
#  41   -0.45   -0.10    0.01   -0.28    0.21    0.00    0.00      -0.61   -0.53    0.40
#  42   -0.24   -0.29    0.05    0.03   -0.05    0.00    0.00      -0.51    0.10   -0.20
#  43    1.07   -0.54    0.34    0.03   -0.08    0.00    0.00       0.82    0.08   -0.24
#  44   -0.51   -0.38    0.27    0.02   -0.05    0.00    0.00      -0.65    0.12   -0.26
#  45   -0.32   -0.99    1.57    0.06   -0.09    0.00    0.00       0.23    0.19   -0.28
#  46   -0.34   -0.15    0.01    0.02   -0.04    0.00    0.00      -0.51    0.11   -0.26
#  47   -0.80   -0.16    0.00    0.02   -0.04    0.00    0.00      -0.96    0.15   -0.25
#  48   -0.67   -0.25    0.05    0.05   -0.06    0.00    0.00      -0.88    0.21   -0.28
#  49   -0.53   -0.21    0.01    0.02   -0.07    0.00    0.00      -0.78    0.07   -0.28
#  50   -0.25   -0.96    0.72    0.01   -0.12    0.00    0.00      -0.60    0.03   -0.28
#  51   -0.10   -0.88    0.76    0.10   -0.14    0.00    0.00      -0.27    0.19   -0.28
#  52    0.00   -1.51    1.36    0.05   -0.14    0.00    0.00      -0.24    0.09   -0.25

@<TRIPOS>MOLECULE
             1549        99
   52    55     0     0     0



@<TRIPOS>ATOM
      1 C1         10.6459    15.3230    65.0186 C.3        1          -0.1537
      2 C2         12.1257    15.1817    64.6569 C.3        1           0.0531
      3 O1         12.9231    15.3859    65.8250 O.3        1          -0.3156
      4 C3         14.2706    15.2942    65.6760 C.ar       1           0.1366
      5 C4         15.0545    14.8521    66.7463 C.ar       1          -0.1893
      6 C5         16.4053    14.7504    66.6273 C.ar       1          -0.0618
      7 C6         17.0267    15.0931    65.4125 C.ar       1          -0.0811
      8 C7         18.4180    14.9980    65.2589 C.ar       1          -0.0713
      9 C8         18.9945    15.3432    64.0495 C.ar       1          -0.0638
     10 C9         18.1985    15.7861    62.9795 C.ar       1          -0.0953
     11 C10        16.8507    15.8852    63.1087 C.ar       1          -0.1118
     12 C11        16.2335    15.5412    64.3256 C.ar       1          -0.0084
     13 C12        14.8408    15.6297    64.4808 C.ar       1          -0.1567
     14 C13        20.4629    15.2455    63.8813 C.ar       1           0.0388
     15 C14        21.1146    14.0063    64.0346 C.ar       1          -0.1887
     16 C15        20.6595    12.6540    64.3507 C.2        1           0.3656
     17 N1         19.3393    12.2634    64.5927 N.pl3      1          -0.8364
     18 N2         21.7095    11.8756    64.3660 N.2        1          -0.3216
     19 N3         22.8590    12.6182    64.0781 N.pl3      1          -0.5093
     20 C16        22.5093    13.9276    63.8723 C.ar       1           0.1582
     21 C17        23.2319    15.0779    63.5607 C.ar       1          -0.1551
     22 C18        22.5830    16.2833    63.4133 C.ar       1          -0.0100
     23 C19        21.2077    16.3729    63.5660 C.ar       1          -0.1484
     24 C20        23.3765    17.5195    63.0767 C.3        1          -0.0301
     25 C21        24.8583    17.1575    62.9574 C.3        1          -0.1467
     26 C22        22.8839    18.0958    61.7478 C.3        1          -0.1394
     27 C23        23.1933    18.5601    64.1833 C.3        1          -0.1397
     28 H1         10.0375    15.1672    64.1275 H          1           0.0671
     29 H2         10.3833    14.5805    65.7721 H          1           0.0671
     30 H3         10.4621    16.3221    65.4138 H          1           0.0796
     31 H4         12.3094    14.1826    64.2618 H          1           0.0628
     32 H5         12.3881    15.9244    63.9036 H          1           0.0628
     33 H6         14.5807    14.5882    67.6803 H          1           0.1312
     34 H7         16.9987    14.4082    67.4622 H          1           0.1332
     35 H8         19.0342    14.6585    66.0782 H          1           0.1311
     36 H9         18.6650    16.0516    62.0423 H          1           0.1278
     37 H10        16.2522    16.2275    62.2775 H          1           0.1326
     38 H11        14.2237    15.9652    63.6604 H          1           0.1357
     39 H12        18.6253    12.9190    64.5578 H          1           0.4117
     40 H13        19.1372    11.3365    64.7955 H          1           0.4053
     41 H14        23.7606    12.2631    64.0312 H          1           0.4405
     42 H15        24.3031    15.0236    63.4348 H          1           0.1323
     43 H16        20.7142    17.3257    63.4426 H          1           0.1278
     44 H17        25.4324    18.0515    62.7141 H          1           0.0596
     45 H18        25.2094    16.7469    63.9042 H          1           0.0603
     46 H19        24.9889    16.4160    62.1692 H          1           0.0597
     47 H20        23.4580    18.9898    61.5046 H          1           0.0587
     48 H21        23.0146    17.3544    60.9596 H          1           0.0606
     49 H22        21.8283    18.3538    61.8328 H          1           0.0575
     50 H23        23.7673    19.4542    63.9398 H          1           0.0576
     51 H24        22.1376    18.8179    64.2682 H          1           0.0605
     52 H25        23.5444    18.1495    65.1299 H          1           0.0590
@<TRIPOS>BOND
     1    1    2 1
     2    1   28 1
     3    1   29 1
     4    1   30 1
     5    2    3 1
     6    2   31 1
     7    2   32 1
     8    3    4 1
     9    4   13 ar
    10    4    5 ar
    11    5    6 ar
    12    5   33 1
    13    6    7 ar
    14    6   34 1
    15    7   12 ar
    16    7    8 ar
    17    8    9 ar
    18    8   35 1
    19    9   10 ar
    20    9   14 1
    21   10   11 ar
    22   10   36 1
    23   11   12 ar
    24   11   37 1
    25   12   13 ar
    26   13   38 1
    27   14   23 ar
    28   14   15 ar
    29   15   20 ar
    30   15   16 1
    31   16   17 1
    32   16   18 2
    33   17   39 1
    34   17   40 1
    35   18   19 1
    36   19   20 1
    37   19   41 1
    38   20   21 ar
    39   21   22 ar
    40   21   42 1
    41   22   23 ar
    42   22   24 1
    43   23   43 1
    44   24   25 1
    45   24   26 1
    46   24   27 1
    47   25   44 1
    48   25   45 1
    49   25   46 1
    50   26   47 1
    51   26   48 1
    52   26   49 1
    53   27   50 1
    54   27   51 1
    55   27   52 1
##########                 Name:                 1549
##########          Protonation:                   99
##########               SMILES:   CCOc1ccc2cc(ccc2c1)c3cc(cc4c3c(n[nH]4)N)C(C)(C)C
##########            Long Name:   6-tert-butyl-4-(6-ethoxy-2-naphthyl)-1H-indazol-3-amine
##########          FlexRecCode: 1
##########               Number:                   55
##########   Ligand Source File: /raid1/people/rgc/Examples/tdt/part3/ligand22set/build/ligand22set-0000001.db2.g
##########           GlobalRank: 7
##########                 Rank:                    1
##########               Setnum:                   26
##########             Matchnum:                50955
##########                Cloud:                    1
##########        Electrostatic:            -8.681847
##########        Van der Waals:           -31.934633
##########  Ligand Polar Desolv:             4.099685
########## Ligand Apolar Desolv:            -4.782141
##########      Internal Energy:             0.000000
##########      Receptor Energy: 0.0
########## Receptor Desolvation:             0.000000
########## Receptor Hydrophobic:             0.000000
##########         Total Energy: -41.3
##########        Ligand Charge:             0.000000
##########            Arbitrary:    +999.9990
##########     heavy atom count:   27
##########           pose count:   10
##########        Ligand Energy:             0.000000
# num electro vdwattr vdwrepu polsolv apolsol rdesolv rhydroe totalscore fullpol fullapo
#   1   -1.20   -1.81    0.81   -0.19   -0.14    0.00    0.00      -2.53   -0.28   -0.21
#   2    0.51   -1.47    0.39    0.03   -0.07    0.00    0.00      -0.61    0.04   -0.11
#   3   -3.65   -1.80    0.23    0.57    0.58    0.00    0.00      -4.06    0.86    0.88
#   4    1.89   -2.53    0.71   -0.16   -0.20    0.00    0.00      -0.29   -0.26   -0.31
#   5   -1.89   -3.37    1.88   -0.01   -0.28    0.00    0.00      -3.67   -0.01   -0.43
#   6   -0.62   -2.89    0.71   -0.02   -0.30    0.00    0.00      -3.12   -0.03   -0.46
#   7   -1.18   -2.21    0.42    0.07   -0.25    0.00    0.00      -3.14    0.12   -0.40
#   8   -0.86   -2.64    1.55    0.03   -0.24    0.00    0.00      -2.16    0.05   -0.43
#   9   -0.77   -2.01    0.63    0.06   -0.17    0.00    0.00      -2.26    0.12   -0.34
#  10   -1.29   -3.43    3.45    0.07   -0.16    0.00    0.00      -1.36    0.13   -0.31
#  11   -1.78   -4.12    3.35    0.06   -0.26    0.00    0.00      -2.75    0.10   -0.45
#  12   -0.15   -2.67    0.84    0.04   -0.24    0.00    0.00      -2.18    0.06   -0.40
#  13   -2.52   -2.95    1.09    0.28   -0.27    0.00    0.00      -4.36    0.47   -0.45
#  14    0.15   -1.61    0.38   -0.04   -0.16    0.00    0.00      -1.27   -0.08   -0.37
#  15   -0.36   -1.76    0.72    0.47   -0.21    0.00    0.00      -1.13    0.98   -0.43
#  16    1.23   -2.09    0.42   -1.03   -1.39    0.00    0.00      -2.86   -1.72   -2.32
#  17   -2.83   -2.41    0.51    1.10    0.55    0.00    0.00      -3.09    1.73    0.86
#  18   -0.78   -3.79    1.90    1.32    0.72    0.00    0.00      -0.64    2.27    1.24
#  19    1.73   -2.79    1.67    0.99    0.36    0.00    0.00       1.96    2.01    0.73
#  20   -0.24   -1.67    0.55   -0.22   -0.35    0.00    0.00      -1.94   -0.51   -0.80
#  21    0.60   -1.18    0.17    0.08   -0.15    0.00    0.00      -0.48    0.23   -0.42
#  22    0.05   -1.08    0.10    0.00   -0.13    0.00    0.00      -1.06    0.00   -0.34
#  23    0.13   -1.43    0.23    0.07   -0.17    0.00    0.00      -1.16    0.16   -0.38
#  24    0.29   -0.62    0.04   -0.01   -0.03    0.00    0.00      -0.33   -0.04   -0.08
#  25    1.29   -0.55    0.07   -0.08   -0.04    0.00    0.00       0.69   -0.31   -0.14
#  26    2.42   -0.69    0.05   -0.11   -0.07    0.00    0.00       1.60   -0.29   -0.17
#  27    1.06   -1.78    0.64   -0.08   -0.07    0.00    0.00      -0.23   -0.21   -0.17
#  28    0.40   -0.46    0.13    0.03   -0.14    0.00    0.00      -0.04    0.05   -0.28
#  29    0.49   -0.62    0.46    0.03   -0.15    0.00    0.00       0.21    0.06   -0.28
#  30    0.69   -1.14    1.90    0.25   -0.15    0.00    0.00       1.54    0.46   -0.28
#  31    0.60   -0.84    2.18    0.09   -0.12    0.00    0.00       1.90    0.20   -0.27
#  32    0.54   -0.62    0.26    0.10   -0.13    0.00    0.00       0.15    0.21   -0.27
#  33    0.69   -0.94    0.53    0.26   -0.13    0.00    0.00       0.41    0.43   -0.22
#  34    0.89   -0.77    0.21    0.37   -0.17    0.00    0.00       0.52    0.60   -0.28
#  35    1.21   -1.20    4.16    0.08   -0.12    0.00    0.00       4.14    0.19   -0.28
#  36    0.54   -0.70    0.51   -0.09   -0.13    0.00    0.00       0.13   -0.19   -0.28
#  37    1.01   -1.47    2.41    0.10   -0.18    0.00    0.00       1.88    0.16   -0.28
#  38    1.29   -0.89    0.89   -0.15   -0.16    0.00    0.00       0.99   -0.27   -0.28
#  39    1.95   -0.03    0.00   -0.24    0.17    0.00    0.00       1.85   -0.53    0.36
#  40    0.20   -0.06    0.00   -0.16    0.36    0.00    0.00       0.34   -0.26    0.59
#  41   -3.37   -0.06    0.01   -0.20    0.15    0.00    0.00      -3.47   -0.53    0.40
#  42   -0.64   -0.16    0.01    0.02   -0.03    0.00    0.00      -0.82    0.10   -0.20
#  43   -0.22   -0.39    0.16    0.03   -0.08    0.00    0.00      -0.50    0.08   -0.24
#  44   -0.52   -0.12    0.01    0.01   -0.03    0.00    0.00      -0.64    0.12   -0.26
#  45   -0.51   -0.40    0.35    0.04   -0.05    0.00    0.00      -0.57    0.19   -0.28
#  46   -0.51   -0.12    0.00    0.01   -0.03    0.00    0.00      -0.65    0.11   -0.26
#  47   -1.23   -0.22    0.02    0.03   -0.05    0.00    0.00      -1.45    0.15   -0.25
#  48   -1.17   -0.29    0.04    0.06   -0.08    0.00    0.00      -1.44    0.21   -0.28
#  49   -0.98   -0.21    0.01    0.02   -0.08    0.00    0.00      -1.24    0.07   -0.28
#  50   -0.50   -0.52    0.19    0.01   -0.09    0.00    0.00      -0.90    0.03   -0.28
#  51   -0.50   -0.67    0.25    0.08   -0.12    0.00    0.00      -0.96    0.19   -0.28
#  52   -0.25   -1.20    1.30    0.04   -0.11    0.00    0.00      -0.22    0.09   -0.25

@<TRIPOS>MOLECULE
             1549        99
   52    55     0     0     0



@<TRIPOS>ATOM
      1 C1         11.5186    15.6351    65.4784 C.3        1          -0.1537
      2 C2         12.9528    15.5621    64.9507 C.3        1           0.0531
      3 O1         13.8670    15.8181    66.0187 O.3        1          -0.3156
      4 C3         15.1916    15.7907    65.7170 C.ar       1           0.1366
      5 C4         16.1135    15.3995    66.6932 C.ar       1          -0.1893
      6 C5         17.4452    15.3625    66.4211 C.ar       1          -0.0618
      7 C6         17.9064    15.7213    65.1412 C.ar       1          -0.0811
      8 C7         19.2741    15.6925    64.8300 C.ar       1          -0.0713
      9 C8         19.6911    16.0515    63.5606 C.ar       1          -0.0638
     10 C9         18.7572    16.4430    62.5862 C.ar       1          -0.0953
     11 C10        17.4297    16.4776    62.8682 C.ar       1          -0.1118
     12 C11        16.9731    16.1177    64.1496 C.ar       1          -0.0084
     13 C12        15.6046    16.1400    64.4625 C.ar       1          -0.1567
     14 C13        21.1338    16.0237    63.2262 C.ar       1           0.0388
     15 C14        21.8595    14.8197    63.3109 C.ar       1          -0.1887
     16 C15        21.5113    13.4504    63.6848 C.2        1           0.3656
     17 N1         20.2484    12.9986    64.0784 N.pl3      1          -0.8364
     18 N2         22.5936    12.7243    63.5843 N.2        1          -0.3216
     19 N3         23.6645    13.5188    63.1625 N.pl3      1          -0.5093
     20 C16        23.2288    14.8072    62.9907 C.ar       1           0.1582
     21 C17        23.8531    15.9878    62.5918 C.ar       1          -0.1551
     22 C18        23.1324    17.1584    62.5127 C.ar       1          -0.0100
     23 C19        21.7807    17.1825    62.8213 C.ar       1          -0.1484
     24 C20        23.8200    18.4278    62.0806 C.3        1          -0.0301
     25 C21        25.2947    18.1372    61.7947 C.3        1          -0.1467
     26 C22        23.1509    18.9643    60.8135 C.3        1          -0.1394
     27 C23        23.7125    19.4708    63.1949 C.3        1          -0.1397
     28 H1         10.8212    15.4398    64.6637 H          1           0.0671
     29 H2         11.3810    14.8893    66.2612 H          1           0.0671
     30 H3         11.3317    16.6285    65.8862 H          1           0.0796
     31 H4         13.1398    14.5687    64.5428 H          1           0.0628
     32 H5         13.0904    16.3081    64.1680 H          1           0.0628
     33 H6         15.7629    15.1235    67.6767 H          1           0.1312
     34 H7         18.1462    15.0592    67.1846 H          1           0.1332
     35 H8         19.9957    15.3928    65.5754 H          1           0.1311
     36 H9         19.1002    16.7202    61.6003 H          1           0.1278
     37 H10        16.7241    16.7809    62.1090 H          1           0.1326
     38 H11        14.8820    16.4357    63.7162 H          1           0.1357
     39 H12        19.5034    13.6182    64.1217 H          1           0.4117
     40 H13        20.1170    12.0655    64.3083 H          1           0.4053
     41 H14        24.5714    13.2077    63.0149 H          1           0.4405
     42 H15        24.9044    15.9844    62.3446 H          1           0.1323
     43 H16        21.2296    18.1086    62.7497 H          1           0.1278
     44 H17        25.7920    19.0554    61.4821 H          1           0.0596
     45 H18        25.7714    17.7551    62.6974 H          1           0.0603
     46 H19        25.3714    17.3941    61.0009 H          1           0.0597
     47 H20        23.6484    19.8825    60.5011 H          1           0.0587
     48 H21        23.2277    18.2212    60.0197 H          1           0.0606
     49 H22        22.1004    19.1714    61.0172 H          1           0.0575
     50 H23        24.2098    20.3890    62.8823 H          1           0.0576
     51 H24        22.6619    19.6778    63.3986 H          1           0.0605
     52 H25        24.1891    19.0885    64.0975 H          1           0.0590
@<TRIPOS>BOND
     1    1    2 1
     2    1   28 1
     3    1   29 1
     4    1   30 1
     5    2    3 1
     6    2   31 1
     7    2   32 1
     8    3    4 1
     9    4   13 ar
    10    4    5 ar
    11    5    6 ar
    12    5   33 1
    13    6    7 ar
    14    6   34 1
    15    7   12 ar
    16    7    8 ar
    17    8    9 ar
    18    8   35 1
    19    9   10 ar
    20    9   14 1
    21   10   11 ar
    22   10   36 1
    23   11   12 ar
    24   11   37 1
    25   12   13 ar
    26   13   38 1
    27   14   23 ar
    28   14   15 ar
    29   15   20 ar
    30   15   16 1
    31   16   17 1
    32   16   18 2
    33   17   39 1
    34   17   40 1
    35   18   19 1
    36   19   20 1
    37   19   41 1
    38   20   21 ar
    39   21   22 ar
    40   21   42 1
    41   22   23 ar
    42   22   24 1
    43   23   43 1
    44   24   25 1
    45   24   26 1
    46   24   27 1
    47   25   44 1
    48   25   45 1
    49   25   46 1
    50   26   47 1
    51   26   48 1
    52   26   49 1
    53   27   50 1
    54   27   51 1
    55   27   52 1
##########                 Name:                 1549
##########          Protonation:                   99
##########               SMILES:   CCOc1ccc2cc(ccc2c1)c3cc(cc4c3c(n[nH]4)N)C(C)(C)C
##########            Long Name:   6-tert-butyl-4-(6-ethoxy-2-naphthyl)-1H-indazol-3-amine
##########          FlexRecCode: 1
##########               Number:                   55
##########   Ligand Source File: /raid1/people/rgc/Examples/tdt/part3/ligand22set/build/ligand22set-0000001.db2.g
##########           GlobalRank: 13
##########                 Rank:                    2
##########               Setnum:                   24
##########             Matchnum:                50955
##########                Cloud:                    1
##########        Electrostatic:            -8.715701
##########        Van der Waals:           -28.699068
##########  Ligand Polar Desolv:             4.093055
########## Ligand Apolar Desolv:            -4.784161
##########      Internal Energy:             0.000000
##########      Receptor Energy: 0.0
########## Receptor Desolvation:             0.000000
########## Receptor Hydrophobic:             0.000000
##########         Total Energy: -38.11
##########        Ligand Charge:             0.000000
##########            Arbitrary:    +999.9990
##########     heavy atom count:   27
##########           pose count:   10
##########        Ligand Energy:             0.000000
# num electro vdwattr vdwrepu polsolv apolsol rdesolv rhydroe totalscore fullpol fullapo
#   1   -1.20   -1.81    0.81   -0.19   -0.14    0.00    0.00      -2.53   -0.28   -0.21
#   2    0.51   -1.47    0.39    0.03   -0.07    0.00    0.00      -0.61    0.04   -0.11
#   3   -3.65   -1.80    0.23    0.57    0.58    0.00    0.00      -4.06    0.86    0.88
#   4    1.89   -2.53    0.71   -0.16   -0.20    0.00    0.00      -0.29   -0.26   -0.31
#   5   -1.89   -3.37    1.88   -0.01   -0.28    0.00    0.00      -3.67   -0.01   -0.43
#   6   -0.62   -2.89    0.71   -0.02   -0.30    0.00    0.00      -3.12   -0.03   -0.46
#   7   -1.18   -2.21    0.42    0.07   -0.25    0.00    0.00      -3.14    0.12   -0.40
#   8   -0.86   -2.64    1.55    0.03   -0.24    0.00    0.00      -2.16    0.05   -0.43
#   9   -0.77   -2.01    0.63    0.06   -0.17    0.00    0.00      -2.26    0.12   -0.34
#  10   -1.29   -3.43    3.45    0.07   -0.16    0.00    0.00      -1.36    0.13   -0.31
#  11   -1.78   -4.12    3.35    0.06   -0.26    0.00    0.00      -2.75    0.10   -0.45
#  12   -0.15   -2.67    0.84    0.04   -0.24    0.00    0.00      -2.18    0.06   -0.40
#  13   -2.52   -2.95    1.09    0.28   -0.27    0.00    0.00      -4.36    0.47   -0.45
#  14    0.15   -1.61    0.38   -0.04   -0.16    0.00    0.00      -1.27   -0.08   -0.37
#  15   -0.36   -1.76    0.72    0.47   -0.21    0.00    0.00      -1.13    0.98   -0.43
#  16    1.23   -2.09    0.42   -1.03   -1.39    0.00    0.00      -2.86   -1.72   -2.32
#  17   -2.83   -2.41    0.51    1.10    0.55    0.00    0.00      -3.09    1.73    0.86
#  18   -0.78   -3.79    1.90    1.32    0.72    0.00    0.00      -0.64    2.27    1.24
#  19    1.73   -2.79    1.67    0.99    0.36    0.00    0.00       1.96    2.01    0.73
#  20   -0.24   -1.67    0.55   -0.22   -0.35    0.00    0.00      -1.94   -0.51   -0.80
#  21    0.60   -1.18    0.17    0.08   -0.15    0.00    0.00      -0.48    0.23   -0.42
#  22    0.05   -1.08    0.10    0.00   -0.13    0.00    0.00      -1.06    0.00   -0.34
#  23    0.13   -1.43    0.23    0.07   -0.17    0.00    0.00      -1.16    0.16   -0.38
#  24    0.29   -0.62    0.04   -0.01   -0.03    0.00    0.00      -0.33   -0.04   -0.08
#  25    2.05   -0.61    0.05   -0.10   -0.04    0.00    0.00       1.35   -0.31   -0.14
#  26    1.89   -1.05    0.22   -0.12   -0.07    0.00    0.00       0.86   -0.29   -0.17
#  27    1.14   -1.96    2.19   -0.07   -0.05    0.00    0.00       1.25   -0.21   -0.17
#  28    0.40   -0.46    0.13    0.03   -0.14    0.00    0.00      -0.04    0.05   -0.28
#  29    0.49   -0.62    0.46    0.03   -0.15    0.00    0.00       0.21    0.06   -0.28
#  30    0.69   -1.14    1.90    0.25   -0.15    0.00    0.00       1.54    0.46   -0.28
#  31    0.60   -0.84    2.18    0.09   -0.12    0.00    0.00       1.90    0.20   -0.27
#  32    0.54   -0.62    0.26    0.10   -0.13    0.00    0.00       0.15    0.21   -0.27
#  33    0.69   -0.94    0.53    0.26   -0.13    0.00    0.00       0.41    0.43   -0.22
#  34    0.89   -0.77    0.21    0.37   -0.17    0.00    0.00       0.52    0.60   -0.28
#  35    1.21   -1.20    4.16    0.08   -0.12    0.00    0.00       4.14    0.19   -0.28
#  36    0.54   -0.70    0.51   -0.09   -0.13    0.00    0.00       0.13   -0.19   -0.28
#  37    1.01   -1.47    2.41    0.10   -0.18    0.00    0.00       1.88    0.16   -0.28
#  38    1.29   -0.89    0.89   -0.15   -0.16    0.00    0.00       0.99   -0.27   -0.28
#  39    1.95   -0.03    0.00   -0.24    0.17    0.00    0.00       1.85   -0.53    0.36
#  40    0.20   -0.06    0.00   -0.16    0.36    0.00    0.00       0.34   -0.26    0.59
#  41   -3.37   -0.06    0.01   -0.20    0.15    0.00    0.00      -3.47   -0.53    0.40
#  42   -0.64   -0.16    0.01    0.02   -0.03    0.00    0.00      -0.82    0.10   -0.20
#  43   -0.22   -0.39    0.16    0.03   -0.08    0.00    0.00      -0.50    0.08   -0.24
#  44   -0.99   -0.18    0.02    0.02   -0.04    0.00    0.00      -1.16    0.12   -0.26
#  45   -0.60   -0.14    0.01    0.03   -0.05    0.00    0.00      -0.75    0.19   -0.28
#  46   -1.09   -0.30    0.05    0.03   -0.08    0.00    0.00      -1.38    0.11   -0.26
#  47   -1.01   -0.36    0.15    0.04   -0.06    0.00    0.00      -1.25    0.15   -0.25
#  48   -0.96   -0.23    0.02    0.05   -0.07    0.00    0.00      -1.20    0.21   -0.28
#  49   -0.57   -0.61    0.24    0.03   -0.11    0.00    0.00      -1.03    0.07   -0.28
#  50   -0.38   -0.35    0.12    0.01   -0.07    0.00    0.00      -0.66    0.03   -0.28
#  51   -0.35   -1.46    2.56    0.08   -0.12    0.00    0.00       0.71    0.19   -0.28
#  52   -0.57   -0.79    1.81    0.02   -0.06    0.00    0.00       0.42    0.09   -0.25

@<TRIPOS>MOLECULE
             1549        99
   52    55     0     0     0



@<TRIPOS>ATOM
      1 C1         11.5186    15.6351    65.4784 C.3        1          -0.1537
      2 C2         12.9528    15.5621    64.9507 C.3        1           0.0531
      3 O1         13.8670    15.8181    66.0187 O.3        1          -0.3156
      4 C3         15.1916    15.7907    65.7170 C.ar       1           0.1366
      5 C4         16.1135    15.3995    66.6932 C.ar       1          -0.1893
      6 C5         17.4452    15.3625    66.4211 C.ar       1          -0.0618
      7 C6         17.9064    15.7213    65.1412 C.ar       1          -0.0811
      8 C7         19.2741    15.6925    64.8300 C.ar       1          -0.0713
      9 C8         19.6911    16.0515    63.5606 C.ar       1          -0.0638
     10 C9         18.7572    16.4430    62.5862 C.ar       1          -0.0953
     11 C10        17.4297    16.4776    62.8682 C.ar       1          -0.1118
     12 C11        16.9731    16.1177    64.1496 C.ar       1          -0.0084
     13 C12        15.6046    16.1400    64.4625 C.ar       1          -0.1567
     14 C13        21.1338    16.0237    63.2262 C.ar       1           0.0388
     15 C14        21.8595    14.8197    63.3109 C.ar       1          -0.1887
     16 C15        21.5113    13.4504    63.6848 C.2        1           0.3656
     17 N1         20.2484    12.9986    64.0784 N.pl3      1          -0.8364
     18 N2         22.5936    12.7243    63.5843 N.2        1          -0.3216
     19 N3         23.6645    13.5188    63.1625 N.pl3      1          -0.5093
     20 C16        23.2288    14.8072    62.9907 C.ar       1           0.1582
     21 C17        23.8531    15.9878    62.5918 C.ar       1          -0.1551
     22 C18        23.1324    17.1584    62.5127 C.ar       1          -0.0100
     23 C19        21.7807    17.1825    62.8213 C.ar       1          -0.1484
     24 C20        23.8200    18.4278    62.0806 C.3        1          -0.0301
     25 C21        24.3929    18.2441    60.6739 C.3        1          -0.1467
     26 C22        22.8106    19.5777    62.0739 C.3        1          -0.1394
     27 C23        24.9545    18.7506    63.0551 C.3        1          -0.1397
     28 H1         10.8212    15.4398    64.6637 H          1           0.0671
     29 H2         11.3810    14.8893    66.2612 H          1           0.0671
     30 H3         11.3317    16.6285    65.8862 H          1           0.0796
     31 H4         13.1398    14.5687    64.5428 H          1           0.0628
     32 H5         13.0904    16.3081    64.1680 H          1           0.0628
     33 H6         15.7629    15.1235    67.6767 H          1           0.1312
     34 H7         18.1462    15.0592    67.1846 H          1           0.1332
     35 H8         19.9957    15.3928    65.5754 H          1           0.1311
     36 H9         19.1002    16.7202    61.6003 H          1           0.1278
     37 H10        16.7241    16.7809    62.1090 H          1           0.1326
     38 H11        14.8820    16.4357    63.7162 H          1           0.1357
     39 H12        19.5034    13.6182    64.1217 H          1           0.4117
     40 H13        20.1170    12.0655    64.3083 H          1           0.4053
     41 H14        24.5714    13.2077    63.0149 H          1           0.4405
     42 H15        24.9044    15.9844    62.3446 H          1           0.1323
     43 H16        21.2296    18.1086    62.7497 H          1           0.1278
     44 H17        24.8902    19.1623    60.3612 H          1           0.0596
     45 H18        25.1120    17.4249    60.6785 H          1           0.0603
     46 H19        23.5848    18.0141    59.9796 H          1           0.0597
     47 H20        23.3081    20.4958    61.7613 H          1           0.0587
     48 H21        22.0025    19.3477    61.3796 H          1           0.0606
     49 H22        22.4025    19.7087    63.0761 H          1           0.0575
     50 H23        25.4518    19.6688    62.7426 H          1           0.0576
     51 H24        24.5464    18.8815    64.0573 H          1           0.0605
     52 H25        25.6735    17.9314    63.0598 H          1           0.0590
@<TRIPOS>BOND
     1    1    2 1
     2    1   28 1
     3    1   29 1
     4    1   30 1
     5    2    3 1
     6    2   31 1
     7    2   32 1
     8    3    4 1
     9    4   13 ar
    10    4    5 ar
    11    5    6 ar
    12    5   33 1
    13    6    7 ar
    14    6   34 1
    15    7   12 ar
    16    7    8 ar
    17    8    9 ar
    18    8   35 1
    19    9   10 ar
    20    9   14 1
    21   10   11 ar
    22   10   36 1
    23   11   12 ar
    24   11   37 1
    25   12   13 ar
    26   13   38 1
    27   14   23 ar
    28   14   15 ar
    29   15   20 ar
    30   15   16 1
    31   16   17 1
    32   16   18 2
    33   17   39 1
    34   17   40 1
    35   18   19 1
    36   19   20 1
    37   19   41 1
    38   20   21 ar
    39   21   22 ar
    40   21   42 1
    41   22   23 ar
    42   22   24 1
    43   23   43 1
    44   24   25 1
    45   24   26 1
    46   24   27 1
    47   25   44 1
    48   25   45 1
    49   25   46 1
    50   26   47 1
    51   26   48 1
    52   26   49 1
    53   27   50 1
    54   27   51 1
    55   27   52 1
##########                 Name:                 1549
##########          Protonation:                   99
##########               SMILES:   CCOc1ccc2cc(ccc2c1)c3cc(cc4c3c(n[nH]4)N)C(C)(C)C
##########            Long Name:   6-tert-butyl-4-(6-ethoxy-2-naphthyl)-1H-indazol-3-amine
##########          FlexRecCode: 1
##########               Number:                   55
##########   Ligand Source File: /raid1/people/rgc/Examples/tdt/part3/ligand22set/build/ligand22set-0000001.db2.g
##########           GlobalRank: 15
##########                 Rank:                    3
##########               Setnum:                   26
##########             Matchnum:                18939
##########                Cloud:                    1
##########        Electrostatic:            -8.344419
##########        Van der Waals:           -26.304523
##########  Ligand Polar Desolv:             4.042570
########## Ligand Apolar Desolv:            -4.807776
##########      Internal Energy:             0.000000
##########      Receptor Energy: 0.0
########## Receptor Desolvation:             0.000000
########## Receptor Hydrophobic:             0.000000
##########         Total Energy: -35.41
##########        Ligand Charge:             0.000000
##########            Arbitrary:    +999.9990
##########     heavy atom count:   27
##########           pose count:   10
##########        Ligand Energy:             0.000000
# num electro vdwattr vdwrepu polsolv apolsol rdesolv rhydroe totalscore fullpol fullapo
#   1   -1.22   -1.84    0.89   -0.19   -0.14    0.00    0.00      -2.49   -0.28   -0.21
#   2    0.51   -1.44    0.38    0.03   -0.07    0.00    0.00      -0.60    0.04   -0.11
#   3   -3.71   -1.84    0.24    0.57    0.58    0.00    0.00      -4.16    0.86    0.88
#   4    1.95   -2.58    0.75   -0.16   -0.20    0.00    0.00      -0.24   -0.26   -0.31
#   5   -2.12   -3.61    2.75   -0.01   -0.28    0.00    0.00      -3.27   -0.01   -0.43
#   6   -0.71   -2.89    0.76   -0.02   -0.30    0.00    0.00      -3.15   -0.03   -0.46
#   7   -1.26   -2.23    0.46    0.07   -0.24    0.00    0.00      -3.20    0.12   -0.40
#   8   -0.93   -2.46    1.14    0.03   -0.24    0.00    0.00      -2.45    0.05   -0.43
#   9   -0.78   -2.08    0.78    0.06   -0.17    0.00    0.00      -2.20    0.12   -0.34
#  10   -1.08   -3.81    3.78    0.07   -0.17    0.00    0.00      -1.22    0.13   -0.31
#  11   -1.56   -4.55    4.20    0.06   -0.27    0.00    0.00      -2.11    0.10   -0.45
#  12   -0.15   -2.74    0.86    0.04   -0.24    0.00    0.00      -2.23    0.06   -0.40
#  13   -2.47   -2.96    1.09    0.28   -0.27    0.00    0.00      -4.33    0.47   -0.45
#  14    0.13   -1.70    0.63   -0.03   -0.16    0.00    0.00      -1.14   -0.08   -0.37
#  15   -0.23   -2.13    2.18    0.46   -0.20    0.00    0.00       0.08    0.98   -0.43
#  16    1.05   -2.07    0.60   -1.01   -1.37    0.00    0.00      -2.80   -1.72   -2.32
#  17   -3.03   -2.21    0.37    1.09    0.54    0.00    0.00      -3.23    1.73    0.86
#  18   -0.40   -3.42    1.58    1.28    0.70    0.00    0.00      -0.26    2.27    1.24
#  19    2.11   -2.66    1.60    0.96    0.35    0.00    0.00       2.36    2.01    0.73
#  20   -0.38   -2.00    1.77   -0.21   -0.33    0.00    0.00      -1.16   -0.51   -0.80
#  21    0.80   -1.29    0.42    0.08   -0.15    0.00    0.00      -0.13    0.23   -0.42
#  22    0.07   -1.09    0.17    0.00   -0.13    0.00    0.00      -0.99    0.00   -0.34
#  23    0.38   -1.41    0.28    0.07   -0.17    0.00    0.00      -0.85    0.16   -0.38
#  24    0.39   -0.57    0.03   -0.01   -0.03    0.00    0.00      -0.20   -0.04   -0.08
#  25    1.67   -0.49    0.03   -0.09   -0.04    0.00    0.00       1.09   -0.31   -0.14
#  26    3.07   -1.04    0.17   -0.12   -0.07    0.00    0.00       2.00   -0.29   -0.17
#  27    1.61   -1.12    0.24   -0.08   -0.06    0.00    0.00       0.59   -0.21   -0.17
#  28    0.42   -0.41    0.09    0.03   -0.15    0.00    0.00      -0.02    0.05   -0.28
#  29    0.51   -0.81    0.95    0.03   -0.15    0.00    0.00       0.53    0.06   -0.28
#  30    0.69   -1.01    1.30    0.25   -0.15    0.00    0.00       1.08    0.46   -0.28
#  31    0.58   -0.90    2.52    0.09   -0.12    0.00    0.00       2.17    0.20   -0.27
#  32    0.57   -0.55    0.18    0.10   -0.13    0.00    0.00       0.17    0.21   -0.27
#  33    0.91   -1.09    1.07    0.26   -0.13    0.00    0.00       1.01    0.43   -0.22
#  34    1.10   -0.76    0.25    0.36   -0.17    0.00    0.00       0.77    0.60   -0.28
#  35    1.28   -1.01    2.48    0.08   -0.12    0.00    0.00       2.71    0.19   -0.28
#  36    0.37   -1.11    2.22   -0.09   -0.14    0.00    0.00       1.25   -0.19   -0.28
#  37    0.78   -1.90    4.98    0.10   -0.18    0.00    0.00       3.79    0.16   -0.28
#  38    1.24   -0.84    0.76   -0.15   -0.15    0.00    0.00       0.85   -0.27   -0.28
#  39    2.05   -0.03    0.00   -0.24    0.16    0.00    0.00       1.95   -0.53    0.36
#  40    0.62   -0.05    0.00   -0.16    0.35    0.00    0.00       0.77   -0.26    0.59
#  41   -3.68   -0.05    0.00   -0.19    0.15    0.00    0.00      -3.78   -0.53    0.40
#  42   -0.78   -0.16    0.01    0.02   -0.03    0.00    0.00      -0.95    0.10   -0.20
#  43   -0.52   -0.38    0.20    0.02   -0.07    0.00    0.00      -0.75    0.08   -0.24
#  44   -0.77   -0.13    0.01    0.01   -0.03    0.00    0.00      -0.91    0.12   -0.26
#  45   -0.49   -0.15    0.02    0.02   -0.04    0.00    0.00      -0.64    0.19   -0.28
#  46   -0.68   -0.18    0.02    0.02   -0.06    0.00    0.00      -0.88    0.11   -0.26
#  47   -1.67   -0.46    0.22    0.05   -0.08    0.00    0.00      -1.93    0.15   -0.25
#  48   -1.44   -0.51    0.17    0.09   -0.12    0.00    0.00      -1.81    0.21   -0.28
#  49   -1.18   -0.27    0.02    0.02   -0.09    0.00    0.00      -1.50    0.07   -0.28
#  50   -0.81   -0.33    0.10    0.01   -0.06    0.00    0.00      -1.09    0.03   -0.28
#  51   -0.75   -0.53    0.21    0.07   -0.10    0.00    0.00      -1.10    0.19   -0.28
#  52   -0.40   -0.49    0.14    0.03   -0.09    0.00    0.00      -0.81    0.09   -0.25

@<TRIPOS>MOLECULE
             1549        99
   52    55     0     0     0



@<TRIPOS>ATOM
      1 C1         11.5793    15.5420    65.7334 C.3        1          -0.1537
      2 C2         12.9795    15.4845    65.1193 C.3        1           0.0531
      3 O1         13.9476    15.8470    66.1058 O.3        1          -0.3156
      4 C3         15.2507    15.8466    65.7208 C.ar       1           0.1366
      5 C4         16.2470    15.5577    66.6587 C.ar       1          -0.1893
      6 C5         17.5595    15.5501    66.3034 C.ar       1          -0.0618
      7 C6         17.9247    15.8356    64.9751 C.ar       1          -0.0811
      8 C7         19.2702    15.8348    64.5779 C.ar       1          -0.0713
      9 C8         19.5921    16.1198    63.2628 C.ar       1          -0.0638
     10 C9         18.5839    16.4086    62.3274 C.ar       1          -0.0953
     11 C10        17.2763    16.4146    62.6925 C.ar       1          -0.1118
     12 C11        16.9158    16.1283    64.0222 C.ar       1          -0.0084
     13 C12        15.5698    16.1227    64.4215 C.ar       1          -0.1567
     14 C13        21.0109    16.1210    62.8376 C.ar       1           0.0388
     15 C14        21.7888    14.9528    62.9552 C.ar       1          -0.1887
     16 C15        21.5204    13.6011    63.4419 C.2        1           0.3656
     17 N1         20.3040    13.1323    63.9464 N.pl3      1          -0.8364
     18 N2         22.6229    12.9094    63.3198 N.2        1          -0.3216
     19 N3         23.6321    13.7109    62.7768 N.pl3      1          -0.5093
     20 C16        23.1346    14.9677    62.5479 C.ar       1           0.1582
     21 C17        23.6844    16.1395    62.0310 C.ar       1          -0.1551
     22 C18        22.9133    17.2750    61.9209 C.ar       1          -0.0100
     23 C19        21.5837    17.2716    62.3147 C.ar       1          -0.1484
     24 C20        23.5204    18.5354    61.3608 C.3        1          -0.0301
     25 C21        24.9848    18.2792    60.9994 C.3        1          -0.1467
     26 C22        22.7521    18.9581    60.1071 C.3        1          -0.1394
     27 C23        23.4407    19.6486    62.4074 C.3        1          -0.1397
     28 H1         10.8408    15.2655    64.9808 H          1           0.0671
     29 H2         11.5213    14.8478    66.5716 H          1           0.0671
     30 H3         11.3782    16.5539    66.0851 H          1           0.0796
     31 H4         13.1807    14.4727    64.7674 H          1           0.0628
     32 H5         13.0374    16.1789    64.2811 H          1           0.0628
     33 H6         15.9702    15.3381    67.6793 H          1           0.1312
     34 H7         18.3187    15.3261    67.0382 H          1           0.1332
     35 H8         20.0487    15.6139    65.2930 H          1           0.1311
     36 H9         18.8529    16.6289    61.3049 H          1           0.1278
     37 H10        16.5129    16.6388    61.9624 H          1           0.1326
     38 H11        14.7905    16.3396    63.7058 H          1           0.1357
     39 H12        19.5387    13.7260    63.9966 H          1           0.4117
     40 H13        20.2252    12.2132    64.2463 H          1           0.4053
     41 H14        24.5399    13.4233    62.5915 H          1           0.4405
     42 H15        24.7174    16.1571    61.7165 H          1           0.1323
     43 H16        20.9921    18.1699    62.2174 H          1           0.1278
     44 H17        25.4240    19.1909    60.5943 H          1           0.0596
     45 H18        25.5323    17.9782    61.8927 H          1           0.0603
     46 H19        25.0418    17.4861    60.2538 H          1           0.0597
     47 H20        23.1914    19.8698    59.7020 H          1           0.0587
     48 H21        22.8090    18.1650    59.3614 H          1           0.0606
     49 H22        21.7089    19.1407    60.3645 H          1           0.0575
     50 H23        23.8798    20.5603    62.0023 H          1           0.0576
     51 H24        22.3974    19.8311    62.6649 H          1           0.0605
     52 H25        23.9881    19.3474    63.3006 H          1           0.0590
@<TRIPOS>BOND
     1    1    2 1
     2    1   28 1
     3    1   29 1
     4    1   30 1
     5    2    3 1
     6    2   31 1
     7    2   32 1
     8    3    4 1
     9    4   13 ar
    10    4    5 ar
    11    5    6 ar
    12    5   33 1
    13    6    7 ar
    14    6   34 1
    15    7   12 ar
    16    7    8 ar
    17    8    9 ar
    18    8   35 1
    19    9   10 ar
    20    9   14 1
    21   10   11 ar
    22   10   36 1
    23   11   12 ar
    24   11   37 1
    25   12   13 ar
    26   13   38 1
    27   14   23 ar
    28   14   15 ar
    29   15   20 ar
    30   15   16 1
    31   16   17 1
    32   16   18 2
    33   17   39 1
    34   17   40 1
    35   18   19 1
    36   19   20 1
    37   19   41 1
    38   20   21 ar
    39   21   22 ar
    40   21   42 1
    41   22   23 ar
    42   22   24 1
    43   23   43 1
    44   24   25 1
    45   24   26 1
    46   24   27 1
    47   25   44 1
    48   25   45 1
    49   25   46 1
    50   26   47 1
    51   26   48 1
    52   26   49 1
    53   27   50 1
    54   27   51 1
    55   27   52 1
##########                 Name:                 1549
##########          Protonation:                   99
##########               SMILES:   CCOc1ccc2cc(ccc2c1)c3cc(cc4c3c(n[nH]4)N)C(C)(C)C
##########            Long Name:   6-tert-butyl-4-(6-ethoxy-2-naphthyl)-1H-indazol-3-amine
##########          FlexRecCode: 1
##########               Number:                   55
##########   Ligand Source File: /raid1/people/rgc/Examples/tdt/part3/ligand22set/build/ligand22set-0000001.db2.g
##########           GlobalRank: 16
##########                 Rank:                    4
##########               Setnum:                   24
##########             Matchnum:                18939
##########                Cloud:                    1
##########        Electrostatic:            -8.383247
##########        Van der Waals:           -26.050465
##########  Ligand Polar Desolv:             4.045616
########## Ligand Apolar Desolv:            -4.816493
##########      Internal Energy:             0.000000
##########      Receptor Energy: 0.0
########## Receptor Desolvation:             0.000000
########## Receptor Hydrophobic:             0.000000
##########         Total Energy: -35.2
##########        Ligand Charge:             0.000000
##########            Arbitrary:    +999.9990
##########     heavy atom count:   27
##########           pose count:   10
##########        Ligand Energy:             0.000000
# num electro vdwattr vdwrepu polsolv apolsol rdesolv rhydroe totalscore fullpol fullapo
#   1   -1.22   -1.84    0.89   -0.19   -0.14    0.00    0.00      -2.49   -0.28   -0.21
#   2    0.51   -1.44    0.38    0.03   -0.07    0.00    0.00      -0.60    0.04   -0.11
#   3   -3.71   -1.84    0.24    0.57    0.58    0.00    0.00      -4.16    0.86    0.88
#   4    1.95   -2.58    0.75   -0.16   -0.20    0.00    0.00      -0.24   -0.26   -0.31
#   5   -2.12   -3.61    2.75   -0.01   -0.28    0.00    0.00      -3.27   -0.01   -0.43
#   6   -0.71   -2.89    0.76   -0.02   -0.30    0.00    0.00      -3.15   -0.03   -0.46
#   7   -1.26   -2.23    0.46    0.07   -0.24    0.00    0.00      -3.20    0.12   -0.40
#   8   -0.93   -2.46    1.14    0.03   -0.24    0.00    0.00      -2.45    0.05   -0.43
#   9   -0.78   -2.08    0.78    0.06   -0.17    0.00    0.00      -2.20    0.12   -0.34
#  10   -1.08   -3.81    3.78    0.07   -0.17    0.00    0.00      -1.22    0.13   -0.31
#  11   -1.56   -4.55    4.20    0.06   -0.27    0.00    0.00      -2.11    0.10   -0.45
#  12   -0.15   -2.74    0.86    0.04   -0.24    0.00    0.00      -2.23    0.06   -0.40
#  13   -2.47   -2.96    1.09    0.28   -0.27    0.00    0.00      -4.33    0.47   -0.45
#  14    0.13   -1.70    0.63   -0.03   -0.16    0.00    0.00      -1.14   -0.08   -0.37
#  15   -0.23   -2.13    2.18    0.46   -0.20    0.00    0.00       0.08    0.98   -0.43
#  16    1.05   -2.07    0.60   -1.01   -1.37    0.00    0.00      -2.80   -1.72   -2.32
#  17   -3.03   -2.21    0.37    1.09    0.54    0.00    0.00      -3.23    1.73    0.86
#  18   -0.40   -3.42    1.58    1.28    0.70    0.00    0.00      -0.26    2.27    1.24
#  19    2.11   -2.66    1.60    0.96    0.35    0.00    0.00       2.36    2.01    0.73
#  20   -0.38   -2.00    1.77   -0.21   -0.33    0.00    0.00      -1.16   -0.51   -0.80
#  21    0.80   -1.29    0.42    0.08   -0.15    0.00    0.00      -0.13    0.23   -0.42
#  22    0.07   -1.09    0.17    0.00   -0.13    0.00    0.00      -0.99    0.00   -0.34
#  23    0.38   -1.41    0.28    0.07   -0.17    0.00    0.00      -0.85    0.16   -0.38
#  24    0.39   -0.57    0.03   -0.01   -0.03    0.00    0.00      -0.20   -0.04   -0.08
#  25    2.80   -1.10    0.31   -0.11   -0.05    0.00    0.00       1.84   -0.31   -0.14
#  26    2.41   -0.90    0.11   -0.12   -0.07    0.00    0.00       1.43   -0.29   -0.17
#  27    1.30   -0.75    0.12   -0.06   -0.05    0.00    0.00       0.56   -0.21   -0.17
#  28    0.42   -0.41    0.09    0.03   -0.15    0.00    0.00      -0.02    0.05   -0.28
#  29    0.51   -0.81    0.95    0.03   -0.15    0.00    0.00       0.53    0.06   -0.28
#  30    0.69   -1.01    1.30    0.25   -0.15    0.00    0.00       1.08    0.46   -0.28
#  31    0.58   -0.90    2.52    0.09   -0.12    0.00    0.00       2.17    0.20   -0.27
#  32    0.57   -0.55    0.18    0.10   -0.13    0.00    0.00       0.17    0.21   -0.27
#  33    0.91   -1.09    1.07    0.26   -0.13    0.00    0.00       1.01    0.43   -0.22
#  34    1.10   -0.76    0.25    0.36   -0.17    0.00    0.00       0.77    0.60   -0.28
#  35    1.28   -1.01    2.48    0.08   -0.12    0.00    0.00       2.71    0.19   -0.28
#  36    0.37   -1.11    2.22   -0.09   -0.14    0.00    0.00       1.25   -0.19   -0.28
#  37    0.78   -1.90    4.98    0.10   -0.18    0.00    0.00       3.79    0.16   -0.28
#  38    1.24   -0.84    0.76   -0.15   -0.15    0.00    0.00       0.85   -0.27   -0.28
#  39    2.05   -0.03    0.00   -0.24    0.16    0.00    0.00       1.95   -0.53    0.36
#  40    0.62   -0.05    0.00   -0.16    0.35    0.00    0.00       0.77   -0.26    0.59
#  41   -3.68   -0.05    0.00   -0.19    0.15    0.00    0.00      -3.78   -0.53    0.40
#  42   -0.78   -0.16    0.01    0.02   -0.03    0.00    0.00      -0.95    0.10   -0.20
#  43   -0.52   -0.38    0.20    0.02   -0.07    0.00    0.00      -0.75    0.08   -0.24
#  44   -1.53   -0.56    0.58    0.03   -0.07    0.00    0.00      -1.54    0.12   -0.26
#  45   -0.80   -0.25    0.04    0.05   -0.08    0.00    0.00      -1.04    0.19   -0.28
#  46   -1.37   -0.56    0.27    0.05   -0.11    0.00    0.00      -1.72    0.11   -0.26
#  47   -1.29   -0.29    0.05    0.04   -0.07    0.00    0.00      -1.56    0.15   -0.25
#  48   -1.15   -0.25    0.02    0.07   -0.09    0.00    0.00      -1.41    0.21   -0.28
#  49   -0.79   -0.48    0.17    0.02   -0.10    0.00    0.00      -1.17    0.07   -0.28
#  50   -0.55   -0.15    0.01    0.00   -0.04    0.00    0.00      -0.73    0.03   -0.28
#  51   -0.42   -0.49    0.17    0.06   -0.09    0.00    0.00      -0.76    0.19   -0.28
#  52   -0.49   -0.21    0.05    0.01   -0.04    0.00    0.00      -0.68    0.09   -0.25

@<TRIPOS>MOLECULE
             1549        99
   52    55     0     0     0



@<TRIPOS>ATOM
      1 C1         11.5793    15.5420    65.7334 C.3        1          -0.1537
      2 C2         12.9795    15.4845    65.1193 C.3        1           0.0531
      3 O1         13.9476    15.8470    66.1058 O.3        1          -0.3156
      4 C3         15.2507    15.8466    65.7208 C.ar       1           0.1366
      5 C4         16.2470    15.5577    66.6587 C.ar       1          -0.1893
      6 C5         17.5595    15.5501    66.3034 C.ar       1          -0.0618
      7 C6         17.9247    15.8356    64.9751 C.ar       1          -0.0811
      8 C7         19.2702    15.8348    64.5779 C.ar       1          -0.0713
      9 C8         19.5921    16.1198    63.2628 C.ar       1          -0.0638
     10 C9         18.5839    16.4086    62.3274 C.ar       1          -0.0953
     11 C10        17.2763    16.4146    62.6925 C.ar       1          -0.1118
     12 C11        16.9158    16.1283    64.0222 C.ar       1          -0.0084
     13 C12        15.5698    16.1227    64.4215 C.ar       1          -0.1567
     14 C13        21.0109    16.1210    62.8376 C.ar       1           0.0388
     15 C14        21.7888    14.9528    62.9552 C.ar       1          -0.1887
     16 C15        21.5204    13.6011    63.4419 C.2        1           0.3656
     17 N1         20.3040    13.1323    63.9464 N.pl3      1          -0.8364
     18 N2         22.6229    12.9094    63.3198 N.2        1          -0.3216
     19 N3         23.6321    13.7109    62.7768 N.pl3      1          -0.5093
     20 C16        23.1346    14.9677    62.5479 C.ar       1           0.1582
     21 C17        23.6844    16.1395    62.0310 C.ar       1          -0.1551
     22 C18        22.9133    17.2750    61.9209 C.ar       1          -0.0100
     23 C19        21.5837    17.2716    62.3147 C.ar       1          -0.1484
     24 C20        23.5204    18.5354    61.3608 C.3        1          -0.0301
     25 C21        24.0111    18.2753    59.9352 C.3        1          -0.1467
     26 C22        22.4668    19.6448    61.3430 C.3        1          -0.1394
     27 C23        24.6996    18.9659    62.2354 C.3        1          -0.1397
     28 H1         10.8408    15.2655    64.9808 H          1           0.0671
     29 H2         11.5213    14.8478    66.5716 H          1           0.0671
     30 H3         11.3782    16.5539    66.0851 H          1           0.0796
     31 H4         13.1807    14.4727    64.7674 H          1           0.0628
     32 H5         13.0374    16.1789    64.2811 H          1           0.0628
     33 H6         15.9702    15.3381    67.6793 H          1           0.1312
     34 H7         18.3187    15.3261    67.0382 H          1           0.1332
     35 H8         20.0487    15.6139    65.2930 H          1           0.1311
     36 H9         18.8529    16.6289    61.3049 H          1           0.1278
     37 H10        16.5129    16.6388    61.9624 H          1           0.1326
     38 H11        14.7905    16.3396    63.7058 H          1           0.1357
     39 H12        19.5387    13.7260    63.9966 H          1           0.4117
     40 H13        20.2252    12.2132    64.2463 H          1           0.4053
     41 H14        24.5399    13.4233    62.5915 H          1           0.4405
     42 H15        24.7174    16.1571    61.7165 H          1           0.1323
     43 H16        20.9921    18.1699    62.2174 H          1           0.1278
     44 H17        24.4502    19.1870    59.5300 H          1           0.0596
     45 H18        24.7617    17.4850    59.9478 H          1           0.0603
     46 H19        23.1711    17.9686    59.3121 H          1           0.0597
     47 H20        22.9061    20.5564    60.9379 H          1           0.0587
     48 H21        21.6268    19.3381    60.7199 H          1           0.0606
     49 H22        22.1173    19.8301    62.3587 H          1           0.0575
     50 H23        25.1388    19.8776    61.8303 H          1           0.0576
     51 H24        24.3502    19.1511    63.2511 H          1           0.0605
     52 H25        25.4502    18.1755    62.2480 H          1           0.0590
@<TRIPOS>BOND
     1    1    2 1
     2    1   28 1
     3    1   29 1
     4    1   30 1
     5    2    3 1
     6    2   31 1
     7    2   32 1
     8    3    4 1
     9    4   13 ar
    10    4    5 ar
    11    5    6 ar
    12    5   33 1
    13    6    7 ar
    14    6   34 1
    15    7   12 ar
    16    7    8 ar
    17    8    9 ar
    18    8   35 1
    19    9   10 ar
    20    9   14 1
    21   10   11 ar
    22   10   36 1
    23   11   12 ar
    24   11   37 1
    25   12   13 ar
    26   13   38 1
    27   14   23 ar
    28   14   15 ar
    29   15   20 ar
    30   15   16 1
    31   16   17 1
    32   16   18 2
    33   17   39 1
    34   17   40 1
    35   18   19 1
    36   19   20 1
    37   19   41 1
    38   20   21 ar
    39   21   22 ar
    40   21   42 1
    41   22   23 ar
    42   22   24 1
    43   23   43 1
    44   24   25 1
    45   24   26 1
    46   24   27 1
    47   25   44 1
    48   25   45 1
    49   25   46 1
    50   26   47 1
    51   26   48 1
    52   26   49 1
    53   27   50 1
    54   27   51 1
    55   27   52 1
##########                 Name:                 1549
##########          Protonation:                   99
##########               SMILES:   CCOc1ccc2cc(ccc2c1)c3cc(cc4c3c(n[nH]4)N)C(C)(C)C
##########            Long Name:   6-tert-butyl-4-(6-ethoxy-2-naphthyl)-1H-indazol-3-amine
##########          FlexRecCode: 1
##########               Number:                   55
##########   Ligand Source File: /raid1/people/rgc/Examples/tdt/part3/ligand22set/build/ligand22set-0000001.db2.g
##########           GlobalRank: 16
##########                 Rank:                    5
##########               Setnum:                   26
##########             Matchnum:                39600
##########                Cloud:                    1
##########        Electrostatic:            -9.333040
##########        Van der Waals:           -24.876102
##########  Ligand Polar Desolv:             4.364299
########## Ligand Apolar Desolv:            -5.186825
##########      Internal Energy:             0.000000
##########      Receptor Energy: 0.0
########## Receptor Desolvation:             0.000000
########## Receptor Hydrophobic:             0.000000
##########         Total Energy: -35.03
##########        Ligand Charge:             0.000000
##########            Arbitrary:    +999.9990
##########     heavy atom count:   27
##########           pose count:   10
##########        Ligand Energy:             0.000000
# num electro vdwattr vdwrepu polsolv apolsol rdesolv rhydroe totalscore fullpol fullapo
#   1   -0.99   -2.18    2.25   -0.18   -0.13    0.00    0.00      -1.22   -0.28   -0.21
#   2    0.43   -1.39    0.29    0.03   -0.07    0.00    0.00      -0.72    0.04   -0.11
#   3   -2.78   -2.28    0.63    0.57    0.58    0.00    0.00      -3.29    0.86    0.88
#   4    1.30   -2.64    0.95   -0.17   -0.20    0.00    0.00      -0.76   -0.26   -0.31
#   5   -0.77   -3.77    1.38   -0.01   -0.28    0.00    0.00      -3.44   -0.01   -0.43
#   6   -0.25   -3.37    1.07   -0.02   -0.30    0.00    0.00      -2.88   -0.03   -0.46
#   7   -0.90   -2.32    0.48    0.08   -0.26    0.00    0.00      -2.92    0.12   -0.40
#   8   -0.77   -2.13    0.43    0.03   -0.26    0.00    0.00      -2.70    0.05   -0.43
#   9   -0.89   -1.98    0.44    0.07   -0.19    0.00    0.00      -2.55    0.12   -0.34
#  10   -1.63   -3.32    2.45    0.07   -0.18    0.00    0.00      -2.60    0.13   -0.31
#  11   -1.80   -3.54    1.52    0.06   -0.27    0.00    0.00      -4.03    0.10   -0.45
#  12   -0.13   -2.58    0.80    0.04   -0.24    0.00    0.00      -2.11    0.06   -0.40
#  13   -1.99   -2.60    1.15    0.29   -0.28    0.00    0.00      -3.43    0.47   -0.45
#  14    0.32   -1.78    0.41   -0.04   -0.18    0.00    0.00      -1.26   -0.08   -0.37
#  15   -0.75   -1.66    0.42    0.55   -0.24    0.00    0.00      -1.69    0.98   -0.43
#  16    1.34   -2.14    0.36   -1.07   -1.45    0.00    0.00      -2.96   -1.72   -2.32
#  17   -1.55   -3.38    1.57    1.10    0.55    0.00    0.00      -1.71    1.73    0.86
#  18   -1.61   -3.73    1.63    1.43    0.78    0.00    0.00      -1.50    2.27    1.24
#  19    0.29   -2.76    1.11    1.07    0.39    0.00    0.00       0.09    2.01    0.73
#  20    0.09   -1.85    0.87   -0.24   -0.37    0.00    0.00      -1.50   -0.51   -0.80
#  21    0.24   -1.38    0.28    0.09   -0.17    0.00    0.00      -0.93    0.23   -0.42
#  22    0.01   -1.41    0.19    0.00   -0.15    0.00    0.00      -1.35    0.00   -0.34
#  23   -0.96   -2.39    1.31    0.07   -0.17    0.00    0.00      -2.15    0.16   -0.38
#  24    0.19   -0.94    0.09   -0.02   -0.03    0.00    0.00      -0.71   -0.04   -0.08
#  25    1.17   -0.86    0.18   -0.10   -0.05    0.00    0.00       0.35   -0.31   -0.14
#  26    1.83   -0.86    0.09   -0.13   -0.08    0.00    0.00       0.86   -0.29   -0.17
#  27    0.52   -3.32    2.22   -0.11   -0.09    0.00    0.00      -0.77   -0.21   -0.17
#  28    0.32   -0.43    0.10    0.03   -0.15    0.00    0.00      -0.13    0.05   -0.28
#  29    0.42   -0.92    1.13    0.04   -0.16    0.00    0.00       0.50    0.06   -0.28
#  30    0.54   -1.74    9.60    0.25   -0.15    0.00    0.00       8.50    0.46   -0.28
#  31    0.51   -0.54    0.47    0.08   -0.11    0.00    0.00       0.41    0.20   -0.27
#  32    0.55   -0.46    0.13    0.10   -0.13    0.00    0.00       0.19    0.21   -0.27
#  33   -0.20   -1.33    1.40    0.28   -0.14    0.00    0.00       0.00    0.43   -0.22
#  34   -0.07   -0.88    0.27    0.38   -0.18    0.00    0.00      -0.47    0.60   -0.28
#  35    1.04   -0.61    0.34    0.09   -0.13    0.00    0.00       0.73    0.19   -0.28
#  36    1.49   -0.89    0.98   -0.10   -0.14    0.00    0.00       1.35   -0.19   -0.28
#  37    0.80   -1.56    3.68    0.10   -0.17    0.00    0.00       2.84    0.16   -0.28
#  38    1.43   -0.52    0.13   -0.13   -0.14    0.00    0.00       0.77   -0.27   -0.28
#  39    1.81   -0.05    0.00   -0.26    0.17    0.00    0.00       1.68   -0.53    0.36
#  40   -1.79   -0.10    0.01   -0.17    0.38    0.00    0.00      -1.67   -0.26    0.59
#  41   -2.70   -0.07    0.01   -0.24    0.18    0.00    0.00      -2.81   -0.53    0.40
#  42   -0.48   -0.20    0.01    0.02   -0.04    0.00    0.00      -0.69    0.10   -0.20
#  43    1.65   -1.47    5.72    0.03   -0.10    0.00    0.00       5.83    0.08   -0.24
#  44   -0.52   -0.23    0.04    0.02   -0.05    0.00    0.00      -0.74    0.12   -0.26
#  45   -0.45   -0.65    0.74    0.05   -0.08    0.00    0.00      -0.38    0.19   -0.28
#  46   -0.53   -0.14    0.01    0.01   -0.03    0.00    0.00      -0.68    0.11   -0.26
#  47   -1.03   -0.30    0.06    0.04   -0.07    0.00    0.00      -1.30    0.15   -0.25
#  48   -0.94   -0.20    0.01    0.05   -0.07    0.00    0.00      -1.15    0.21   -0.28
#  49   -0.67   -0.42    0.15    0.02   -0.09    0.00    0.00      -1.01    0.07   -0.28
#  50   -0.27   -1.74    2.88    0.01   -0.14    0.00    0.00       0.74    0.03   -0.28
#  51   -0.14   -1.43    2.33    0.11   -0.16    0.00    0.00       0.70    0.19   -0.28
#  52   -0.08   -1.50    1.29    0.05   -0.14    0.00    0.00      -0.37    0.09   -0.25

@<TRIPOS>MOLECULE
             1549        99
   52    55     0     0     0



@<TRIPOS>ATOM
      1 C1         10.6924    15.0070    65.9283 C.3        1          -0.1537
      2 C2         12.1201    15.0292    65.3788 C.3        1           0.0531
      3 O1         13.0472    15.0990    66.4639 O.3        1          -0.3156
      4 C3         14.3680    15.1269    66.1462 C.ar       1           0.1366
      5 C4         15.3017    14.5751    67.0291 C.ar       1          -0.1893
      6 C5         16.6300    14.5885    66.7388 C.ar       1          -0.0618
      7 C6         17.0756    15.1636    65.5347 C.ar       1          -0.0811
      8 C7         18.4394    15.1919    65.2068 C.ar       1          -0.0713
      9 C8         18.8410    15.7655    64.0135 C.ar       1          -0.0638
     10 C9         17.8953    16.3173    63.1325 C.ar       1          -0.0953
     11 C10        16.5713    16.2998    63.4321 C.ar       1          -0.1118
     12 C11        16.1303    15.7233    64.6376 C.ar       1          -0.0084
     13 C12        14.7657    15.6883    64.9660 C.ar       1          -0.1567
     14 C13        20.2795    15.7989    63.6621 C.ar       1           0.0388
     15 C14        21.0063    14.5998    63.5291 C.ar       1          -0.1887
     16 C15        20.6626    13.1859    63.6653 C.2        1           0.3656
     17 N1         19.4046    12.6702    63.9901 N.pl3      1          -0.8364
     18 N2         21.7437    12.4903    63.4281 N.2        1          -0.3216
     19 N3         22.8093    13.3479    63.1369 N.pl3      1          -0.5093
     20 C16        22.3715    14.6458    63.1952 C.ar       1           0.1582
     21 C17        22.9909    15.8788    62.9986 C.ar       1          -0.1551
     22 C18        22.2693    17.0439    63.1313 C.ar       1          -0.0100
     23 C19        20.9214    17.0115    63.4556 C.ar       1          -0.1484
     24 C20        22.9515    18.3703    62.9165 C.3        1          -0.0301
     25 C21        24.4226    18.1366    62.5671 C.3        1          -0.1467
     26 C22        22.2671    19.1160    61.7692 C.3        1          -0.1394
     27 C23        22.8575    19.2052    64.1953 C.3        1          -0.1397
     28 H1          9.9852    14.9536    65.1005 H          1           0.0671
     29 H2         10.5643    14.1369    66.5722 H          1           0.0671
     30 H3         10.5104    15.9147    66.5036 H          1           0.0796
     31 H4         12.3022    14.1215    64.8033 H          1           0.0628
     32 H5         12.2481    15.8994    64.7350 H          1           0.0628
     33 H6         14.9631    14.1327    67.9544 H          1           0.1312
     34 H7         17.3403    14.1594    67.4301 H          1           0.1332
     35 H8         19.1700    14.7696    65.8807 H          1           0.1311
     36 H9         18.2263    16.7611    62.2052 H          1           0.1278
     37 H10        15.8566    16.7280    62.7451 H          1           0.1326
     38 H11        14.0341    16.1068    64.2906 H          1           0.1357
     39 H12        18.6602    13.2714    64.1485 H          1           0.4117
     40 H13        19.2760    11.7111    64.0570 H          1           0.4053
     41 H14        23.7144    13.0689    62.9270 H          1           0.4405
     42 H15        24.0391    15.9204    62.7420 H          1           0.1323
     43 H16        20.3695    17.9349    63.5515 H          1           0.1278
     44 H17        24.9161    19.0960    62.4118 H          1           0.0596
     45 H18        24.9103    17.6054    63.3847 H          1           0.0603
     46 H19        24.4897    17.5418    61.6562 H          1           0.0597
     47 H20        22.7607    20.0754    61.6139 H          1           0.0587
     48 H21        22.3342    18.5212    60.8581 H          1           0.0606
     49 H22        21.2191    19.2826    62.0180 H          1           0.0575
     50 H23        23.3509    20.1646    64.0400 H          1           0.0576
     51 H24        21.8095    19.3717    64.4442 H          1           0.0605
     52 H25        23.3451    18.6739    65.0126 H          1           0.0590
@<TRIPOS>BOND
     1    1    2 1
     2    1   28 1
     3    1   29 1
     4    1   30 1
     5    2    3 1
     6    2   31 1
     7    2   32 1
     8    3    4 1
     9    4   13 ar
    10    4    5 ar
    11    5    6 ar
    12    5   33 1
    13    6    7 ar
    14    6   34 1
    15    7   12 ar
    16    7    8 ar
    17    8    9 ar
    18    8   35 1
    19    9   10 ar
    20    9   14 1
    21   10   11 ar
    22   10   36 1
    23   11   12 ar
    24   11   37 1
    25   12   13 ar
    26   13   38 1
    27   14   23 ar
    28   14   15 ar
    29   15   20 ar
    30   15   16 1
    31   16   17 1
    32   16   18 2
    33   17   39 1
    34   17   40 1
    35   18   19 1
    36   19   20 1
    37   19   41 1
    38   20   21 ar
    39   21   22 ar
    40   21   42 1
    41   22   23 ar
    42   22   24 1
    43   23   43 1
    44   24   25 1
    45   24   26 1
    46   24   27 1
    47   25   44 1
    48   25   45 1
    49   25   46 1
    50   26   47 1
    51   26   48 1
    52   26   49 1
    53   27   50 1
    54   27   51 1
    55   27   52 1
##########                 Name:                 1563
##########          Protonation:                   86
##########               SMILES:   c1cc(nc2c1cc(cc2)c3c4c(ncnc4n(n3)CC5CC[NH2+]CC5)N)OCC(F)(F)F
##########            Long Name:   yl)-3-[2-(2,2,2-trifluoroethoxy)-6-quinolyl]pyrazolo[3,4-d]pyrimidin-4-amine
##########          FlexRecCode: 1
##########               Number:                   66
##########   Ligand Source File: /raid1/people/rgc/Examples/tdt/part3/ligand22set/build/ligand22set-0000001.db2.g
##########           GlobalRank: 6
##########                 Rank:                    1
##########               Setnum:                   37
##########             Matchnum:                29775
##########                Cloud:                    1
##########        Electrostatic:           -29.713785
##########        Van der Waals:           -31.287254
##########  Ligand Polar Desolv:            14.508762
########## Ligand Apolar Desolv:            -3.702871
##########      Internal Energy:             0.000000
##########      Receptor Energy: 0.0
########## Receptor Desolvation:             0.000000
########## Receptor Hydrophobic:             0.000000
##########         Total Energy: -50.2
##########        Ligand Charge:             1.000000
##########            Arbitrary:    +999.9990
##########     heavy atom count:   33
##########           pose count:   10
##########        Ligand Energy:             0.000000
# num electro vdwattr vdwrepu polsolv apolsol rdesolv rhydroe totalscore fullpol fullapo
#   1   -2.69   -2.31    0.37   -5.36    0.51    0.00    0.00      -9.48   -8.45    0.81
#   2    1.71   -1.97    0.46    2.27   -1.28    0.00    0.00       1.19    3.81   -2.15
#   3   -1.20   -1.66    0.39   -1.41   -0.22    0.00    0.00      -4.10   -2.84   -0.44
#   4    1.65   -2.19    0.94    0.70   -0.36    0.00    0.00       0.73    1.47   -0.75
#   5   -1.49   -3.35    3.21   -1.12    0.52    0.00    0.00      -2.23   -2.37    1.09
#   6   -0.05   -1.80    0.36   -1.81    0.44    0.00    0.00      -2.87   -4.06    0.98
#   7   -0.62   -1.45    0.36    0.76   -0.18    0.00    0.00      -1.14    1.77   -0.43
#   8    1.15   -0.64    0.04   -0.76   -0.05    0.00    0.00      -0.26   -2.10   -0.15
#   9    1.52   -0.80    0.10   -1.08   -0.07    0.00    0.00      -0.33   -3.45   -0.22
#  10    0.10   -0.67    0.10    0.25   -0.14    0.00    0.00      -0.37    0.81   -0.47
#  11   12.99   -1.65    0.62   -6.38    0.35    0.00    0.00       5.93  -16.39    0.89
#  12  -10.99   -0.03    0.00    5.93    0.20    0.00    0.00      -4.90   16.94    0.56
#  13  -14.22   -0.08    0.01    7.04    0.22    0.00    0.00      -7.04   18.09    0.57
#  14    0.11   -1.11    0.20    0.29   -0.21    0.00    0.00      -0.73    0.64   -0.47
#  15    1.76   -0.71    0.04   -1.56   -0.10    0.00    0.00      -0.57   -3.60   -0.22
#  16    0.21   -1.59    0.31    1.20   -0.95    0.00    0.00      -0.82    2.78   -2.20
#  17    0.91   -1.59    0.28   -2.01    0.92    0.00    0.00      -1.51   -4.59    2.09
#  18   -1.17   -2.77    1.71    1.42   -1.57    0.00    0.00      -2.38    2.86   -3.16
#  19   -1.16   -3.17    1.18   -2.47    1.20    0.00    0.00      -4.42   -4.27    2.08
#  20   -0.58   -2.22    0.75   -0.21   -0.21    0.00    0.00      -2.47   -0.38   -0.38
#  21   -0.90   -2.68    1.06   -0.24   -0.18    0.00    0.00      -2.94   -0.41   -0.31
#  22   -1.89   -2.39    0.52   -0.88   -0.26    0.00    0.00      -4.89   -1.34   -0.40
#  23   -0.21   -3.99    3.52    0.08   -0.31    0.00    0.00      -0.90    0.12   -0.46
#  24   -1.56   -3.46    1.85   -1.12   -0.30    0.00    0.00      -4.59   -1.71   -0.46
#  25    4.07   -2.39    0.75    1.18   -0.43    0.00    0.00       3.17    1.80   -0.66
#  26   -2.71   -1.81    0.29   -0.96    0.56    0.00    0.00      -4.63   -1.48    0.86
#  27    0.23   -1.89    1.03    0.16   -0.07    0.00    0.00      -0.54    0.24   -0.10
#  28    3.96   -1.64    0.40    1.05   -0.04    0.00    0.00       3.73    1.73   -0.07
#  29   -1.15   -0.99    0.15   -0.30   -0.31    0.00    0.00      -2.61   -0.46   -0.48
#  30   -1.12   -2.92    1.70   -0.37   -0.30    0.00    0.00      -3.02   -0.60   -0.48
#  31   -2.22   -2.65    4.03   -0.24   -0.27    0.00    0.00      -1.36   -0.43   -0.48
#  32   -6.71   -2.88    1.60   -1.89    1.68    0.00    0.00      -8.20   -3.15    2.80
#  33    2.76   -2.63    0.83    0.57   -0.44    0.00    0.00       1.09    0.95   -0.73
#  34   -1.26   -3.64    1.81   -0.58   -0.27    0.00    0.00      -3.94   -0.97   -0.46
#  35   -0.90   -2.93    1.41   -0.28   -0.25    0.00    0.00      -2.95   -0.50   -0.45
#  36    0.39   -0.05    0.00    3.10    0.37    0.00    0.00       3.81    4.95    0.59
#  37    1.94   -0.03    0.00    2.20    0.17    0.00    0.00       4.27    4.73    0.36
#  38   -0.35   -0.76    0.27    0.58   -0.13    0.00    0.00      -0.39    1.23   -0.28
#  39   -0.51   -0.86    0.90    0.77   -0.10    0.00    0.00       0.20    2.17   -0.28
#  40   -0.92   -0.14    0.00    0.13   -0.04    0.00    0.00      -0.96    0.99   -0.28
#  41   -1.05   -0.58    0.32    0.82   -0.08    0.00    0.00      -0.57    2.72   -0.28
#  42   -0.79   -0.27    0.06    0.08   -0.05    0.00    0.00      -0.97    0.37   -0.24
#  43   -1.78   -0.15    0.01    0.74   -0.04    0.00    0.00      -1.21    5.00   -0.28
#  44   -2.34   -0.24    0.07    0.59   -0.05    0.00    0.00      -1.96    3.58   -0.28
#  45   -3.52   -0.49    0.16    2.44   -0.11    0.00    0.00      -1.51    6.01   -0.28
#  46   -3.20   -0.44    0.12    1.44   -0.10    0.00    0.00      -2.17    3.88   -0.28
#  47   -1.00   -0.23    0.03    0.48   -0.07    0.00    0.00      -0.80    1.93   -0.28
#  48   -1.12   -0.32    0.05    1.06   -0.09    0.00    0.00      -0.42    3.36   -0.28
#  49   -2.00   -1.34    5.58    1.14   -0.12    0.00    0.00       3.27    2.75   -0.28
#  50    1.57   -1.15    2.59    1.23   -0.13    0.00    0.00       4.11    2.33   -0.24
#  51    1.14   -1.38    1.72    2.21   -0.18    0.00    0.00       3.52    3.52   -0.28
#  52    0.97   -1.05    0.66    1.08   -0.17    0.00    0.00       1.49    1.82   -0.28
#  53    0.94   -0.89    1.09    0.51   -0.14    0.00    0.00       1.50    1.02   -0.28
#  54    1.09   -1.16    3.16    0.51   -0.15    0.00    0.00       3.46    0.94   -0.28
#  55    1.35   -1.61    3.33    0.77   -0.18    0.00    0.00       3.66    1.23   -0.28
#  56    1.15   -0.82    0.84    0.79   -0.14    0.00    0.00       1.82    1.61   -0.28

@<TRIPOS>MOLECULE
             1563        86
   56    60     0     0     0



@<TRIPOS>ATOM
      1 N1         20.0667    12.9944    63.6617 N.pl3      1          -0.8259
      2 C1         21.2882    13.6278    63.5375 C.ar       1           0.5216
      3 C2         21.3890    15.0248    63.6454 C.ar       1          -0.3262
      4 C3         20.4426    16.1150    63.8806 C.2        1           0.1849
      5 N2         21.1268    17.2348    63.8782 N.2        1          -0.2418
      6 N3         22.4810    16.9640    63.6551 N.pl3      1          -0.3864
      7 C4         23.5448    17.9690    63.5867 C.3        1           0.1483
      8 C5         23.7058    18.4435    62.1412 C.3        1          -0.1198
      9 C6         24.4131    19.8017    62.1237 C.3        1          -0.1427
     10 C7         24.4996    20.3072    60.6820 C.3        1          -0.0058
     11 N4         23.1479    20.4507    60.1280 N.4        1          -0.5055
     12 H1         22.6102    21.0725    60.7129 H          1           0.4285
     13 H2         23.2062    20.8333    59.1962 H          1           0.4326
     14 C8         22.4896    19.1397    60.0750 C.3        1          -0.0047
     15 C9         22.3258    18.5894    61.4934 C.3        1          -0.1408
     16 C10        22.6571    15.6200    63.5111 C.ar       1           0.3787
     17 N5         23.7109    14.8349    63.2873 N.ar       1          -0.5781
     18 C11        23.5686    13.5312    63.1941 C.ar       1           0.3943
     19 N6         22.3983    12.9301    63.3184 N.ar       1          -0.5980
     20 C12        18.9806    15.9800    64.0832 C.ar       1          -0.0387
     21 C13        18.4756    15.8184    65.3617 C.ar       1          -0.0647
     22 C14        17.0921    15.6915    65.5448 C.ar       1          -0.1308
     23 C15        16.5386    15.5259    66.8315 C.ar       1          -0.0199
     24 C16        15.1853    15.4086    66.9417 C.ar       1          -0.1650
     25 C17        14.3854    15.4543    65.7932 C.ar       1           0.3670
     26 O1         13.0406    15.3367    65.9187 O.3        1          -0.2875
     27 C18        12.2371    16.0068    64.9455 C.3        1           0.0260
     28 C19        11.9756    15.0680    63.7660 C.3        1           0.4633
     29 F1         11.3051    13.9266    64.2184 F          1          -0.1730
     30 F2         11.1890    15.7242    62.8132 F          1          -0.1673
     31 F3         13.1938    14.6949    63.1880 F          1          -0.1723
     32 N7         14.9068    15.6089    64.5955 N.ar       1          -0.5399
     33 C20        16.2280    15.7296    64.4223 C.ar       1           0.1833
     34 C21        16.7733    15.8947    63.1367 C.ar       1          -0.0930
     35 C22        18.1163    16.0224    62.9777 C.ar       1          -0.0633
     36 H3         20.0119    12.0286    63.5910 H          1           0.4148
     37 H4         19.2646    13.5152    63.8234 H          1           0.4141
     38 H5         23.2850    18.8168    64.2206 H          1           0.1086
     39 H6         24.4812    17.5308    63.9316 H          1           0.1019
     40 H7         24.2956    17.7169    61.5824 H          1           0.0962
     41 H8         23.8487    20.5138    62.7258 H          1           0.0937
     42 H9         25.4178    19.6941    62.5325 H          1           0.1119
     43 H10        25.0028    21.2739    60.6659 H          1           0.1343
     44 H11        25.0644    19.5945    60.0808 H          1           0.1286
     45 H12        21.5090    19.2447    59.6109 H          1           0.1370
     46 H13        23.0973    18.4521    59.4868 H          1           0.1310
     47 H14        21.8384    17.6153    61.4518 H          1           0.1184
     48 H15        21.7180    19.2764    62.0823 H          1           0.0941
     49 H16        24.4446    12.9263    63.0122 H          1           0.2082
     50 H17        19.1423    15.7901    66.2110 H          1           0.1404
     51 H18        17.1708    15.4926    67.7066 H          1           0.1553
     52 H19        14.7306    15.2804    67.9129 H          1           0.1557
     53 H20        11.2881    16.2976    65.3958 H          1           0.1173
     54 H21        12.7596    16.8962    64.5931 H          1           0.1179
     55 H22        16.1230    15.9251    62.2750 H          1           0.1456
     56 H23        18.5253    16.1535    61.9867 H          1           0.1377
@<TRIPOS>BOND
     1    1    2 1
     2    1   36 1
     3    1   37 1
     4    2   19 ar
     5    2    3 ar
     6    3   16 ar
     7    3    4 1
     8    4    5 2
     9    4   20 1
    10    5    6 1
    11    6    7 1
    12    6   16 1
    13    7    8 1
    14    7   38 1
    15    7   39 1
    16    8   15 1
    17    8    9 1
    18    8   40 1
    19    9   10 1
    20    9   41 1
    21    9   42 1
    22   10   11 1
    23   10   43 1
    24   10   44 1
    25   11   12 1
    26   11   13 1
    27   11   14 1
    28   14   15 1
    29   14   45 1
    30   14   46 1
    31   15   47 1
    32   15   48 1
    33   16   17 ar
    34   17   18 ar
    35   18   19 ar
    36   18   49 1
    37   20   35 ar
    38   20   21 ar
    39   21   22 ar
    40   21   50 1
    41   22   33 ar
    42   22   23 ar
    43   23   24 ar
    44   23   51 1
    45   24   25 ar
    46   24   52 1
    47   25   26 1
    48   25   32 ar
    49   26   27 1
    50   27   28 1
    51   27   53 1
    52   27   54 1
    53   28   29 1
    54   28   30 1
    55   28   31 1
    56   32   33 ar
    57   33   34 ar
    58   34   35 ar
    59   34   55 1
    60   35   56 1
##########                 Name:                 1563
##########          Protonation:                   86
##########               SMILES:   c1cc(nc2c1cc(cc2)c3c4c(ncnc4n(n3)CC5CC[NH2+]CC5)N)OCC(F)(F)F
##########            Long Name:   yl)-3-[2-(2,2,2-trifluoroethoxy)-6-quinolyl]pyrazolo[3,4-d]pyrimidin-4-amine
##########          FlexRecCode: 1
##########               Number:                   71
##########   Ligand Source File: /raid1/people/rgc/Examples/tdt/part3/ligand22set/build/ligand22set-0000001.db2.g
##########           GlobalRank: 6
##########                 Rank:                    1
##########               Setnum:                  140
##########             Matchnum:                64862
##########                Cloud:                    1
##########        Electrostatic:           -24.979536
##########        Van der Waals:           -33.172443
##########  Ligand Polar Desolv:            12.389740
########## Ligand Apolar Desolv:            -4.189148
##########      Internal Energy:             0.000000
##########      Receptor Energy: 0.0
########## Receptor Desolvation:             0.000000
########## Receptor Hydrophobic:             0.000000
##########         Total Energy: -49.95
##########        Ligand Charge:             1.000000
##########            Arbitrary:    +999.9990
##########     heavy atom count:   33
##########           pose count:   10
##########        Ligand Energy:             0.000000
# num electro vdwattr vdwrepu polsolv apolsol rdesolv rhydroe totalscore fullpol fullapo
#   1   -0.35   -4.43    3.40   -5.40    0.52    0.00    0.00      -6.26   -8.45    0.81
#   2    1.81   -2.61    0.70    2.44   -1.38    0.00    0.00       0.97    3.81   -2.15
#   3   -1.52   -1.70    0.28   -1.67   -0.26    0.00    0.00      -4.86   -2.84   -0.44
#   4    1.61   -1.72    0.34    0.75   -0.38    0.00    0.00       0.60    1.47   -0.75
#   5   -1.70   -2.09    0.72   -1.09    0.50    0.00    0.00      -3.66   -2.37    1.09
#   6   -0.67   -1.60    0.29   -1.76    0.42    0.00    0.00      -3.32   -4.06    0.98
#   7   -0.35   -0.99    0.14    0.72   -0.17    0.00    0.00      -0.65    1.77   -0.43
#   8    0.90   -0.65    0.04   -0.82   -0.06    0.00    0.00      -0.59   -2.10   -0.15
#   9    1.48   -0.53    0.03   -1.05   -0.07    0.00    0.00      -0.13   -3.45   -0.22
#  10    0.10   -0.69    0.10    0.27   -0.15    0.00    0.00      -0.38    0.81   -0.47
#  11    9.61   -1.21    0.31   -5.96    0.32    0.00    0.00       3.08  -16.39    0.89
#  12   -6.16   -0.03    0.00    4.01    0.13    0.00    0.00      -2.05   16.94    0.56
#  13  -10.25   -0.02    0.00    5.52    0.17    0.00    0.00      -4.58   18.09    0.57
#  14    0.08   -1.42    0.55    0.28   -0.20    0.00    0.00      -0.72    0.64   -0.47
#  15    1.15   -1.23    0.22   -1.57   -0.10    0.00    0.00      -1.54   -3.60   -0.22
#  16    0.86   -1.78    0.42    1.38   -1.09    0.00    0.00      -0.22    2.78   -2.20
#  17   -0.26   -2.41    0.77   -2.38    1.08    0.00    0.00      -3.19   -4.59    2.09
#  18    1.54   -5.32    5.49    1.69   -1.86    0.00    0.00       1.53    2.86   -3.16
#  19   -3.94   -5.44    4.18   -2.81    1.37    0.00    0.00      -6.64   -4.27    2.08
#  20   -0.52   -1.91    0.33   -0.22   -0.22    0.00    0.00      -2.54   -0.38   -0.38
#  21   -0.73   -2.07    0.35   -0.26   -0.19    0.00    0.00      -2.91   -0.41   -0.31
#  22   -1.62   -2.48    0.76   -0.87   -0.26    0.00    0.00      -4.47   -1.34   -0.40
#  23   -0.14   -3.00    0.89    0.08   -0.30    0.00    0.00      -2.47    0.12   -0.46
#  24   -1.39   -2.85    0.86   -1.10   -0.30    0.00    0.00      -4.77   -1.71   -0.46
#  25    3.95   -2.30    0.79    1.17   -0.43    0.00    0.00       3.19    1.80   -0.66
#  26   -2.63   -1.81    0.32   -0.97    0.57    0.00    0.00      -4.53   -1.48    0.86
#  27    0.20   -1.72    0.53    0.15   -0.06    0.00    0.00      -0.90    0.24   -0.10
#  28    2.50   -1.29    0.18    1.10   -0.04    0.00    0.00       2.45    1.73   -0.07
#  29   -0.84   -1.26    0.32   -0.29   -0.30    0.00    0.00      -2.37   -0.46   -0.48
#  30   -0.14   -2.01    1.63   -0.37   -0.30    0.00    0.00      -1.19   -0.60   -0.48
#  31   -1.18   -1.34    0.44   -0.28   -0.31    0.00    0.00      -2.67   -0.43   -0.48
#  32   -6.18   -2.93    1.09   -1.89    1.68    0.00    0.00      -8.23   -3.15    2.80
#  33    2.61   -2.90    1.05    0.56   -0.43    0.00    0.00       0.89    0.95   -0.73
#  34   -1.19   -4.36    2.74   -0.59   -0.28    0.00    0.00      -3.69   -0.97   -0.46
#  35   -0.93   -3.35    1.94   -0.29   -0.26    0.00    0.00      -2.88   -0.50   -0.45
#  36   -3.71   -0.18    0.06    3.23    0.38    0.00    0.00      -0.23    4.95    0.59
#  37    1.67   -0.08    0.01    2.36    0.18    0.00    0.00       4.14    4.73    0.36
#  38   -0.12   -0.62    0.24    0.50   -0.11    0.00    0.00      -0.10    1.23   -0.28
#  39   -0.34   -0.23    0.02    0.49   -0.06    0.00    0.00      -0.12    2.17   -0.28
#  40   -0.83   -0.23    0.04    0.20   -0.06    0.00    0.00      -0.87    0.99   -0.28
#  41   -0.81   -0.25    0.06    0.51   -0.05    0.00    0.00      -0.53    2.72   -0.28
#  42   -1.02   -0.13    0.00    0.05   -0.03    0.00    0.00      -1.13    0.37   -0.24
#  43   -2.36   -0.21    0.05    0.78   -0.04    0.00    0.00      -1.78    5.00   -0.28
#  44   -3.09   -0.35    0.11    1.07   -0.08    0.00    0.00      -2.34    3.58   -0.28
#  45   -2.79   -1.44    3.52    2.61   -0.12    0.00    0.00       1.78    6.01   -0.28
#  46   -2.52   -0.27    0.02    1.26   -0.09    0.00    0.00      -1.59    3.88   -0.28
#  47   -0.36   -0.54    0.28    0.74   -0.11    0.00    0.00       0.01    1.93   -0.28
#  48   -0.61   -0.61    0.17    1.48   -0.12    0.00    0.00       0.30    3.36   -0.28
#  49    0.30   -2.56    8.61    1.60   -0.16    0.00    0.00       7.79    2.75   -0.28
#  50    1.09   -0.47    0.09    1.17   -0.12    0.00    0.00       1.77    2.33   -0.24
#  51    0.21   -0.70    0.15    2.15   -0.17    0.00    0.00       1.64    3.52   -0.28
#  52    0.98   -0.81    0.45    1.05   -0.16    0.00    0.00       1.51    1.82   -0.28
#  53    0.83   -1.36    2.69    0.56   -0.15    0.00    0.00       2.57    1.02   -0.28
#  54    1.16   -0.57    0.15    0.47   -0.14    0.00    0.00       1.07    0.94   -0.28
#  55    0.31   -2.06    4.74    0.81   -0.18    0.00    0.00       3.62    1.23   -0.28
#  56    1.29   -0.92    1.20    0.81   -0.14    0.00    0.00       2.24    1.61   -0.28

@<TRIPOS>MOLECULE
             1563        86
   56    60     0     0     0



@<TRIPOS>ATOM
      1 N1         19.1710    12.4674    64.2861 N.pl3      1          -0.8259
      2 C1         20.4746    12.8865    64.1029 C.ar       1           0.5216
      3 C2         20.7736    14.2456    63.9113 C.ar       1          -0.3262
      4 C3         19.9887    15.4782    63.8458 C.2        1           0.1849
      5 N2         20.8278    16.4665    63.6428 N.2        1          -0.2418
      6 N3         22.1345    15.9728    63.5674 N.pl3      1          -0.3864
      7 C4         23.3344    16.7843    63.3483 C.3        1           0.1483
      8 C5         23.0727    17.7880    62.2238 C.3        1          -0.1198
      9 C6         24.4070    18.2853    61.6601 C.3        1          -0.1427
     10 C7         24.1392    19.3471    60.5915 C.3        1          -0.0058
     11 N4         23.4081    20.4721    61.1867 N.4        1          -0.5055
     12 H1         23.9371    20.8436    61.9613 H          1           0.4285
     13 H2         23.2789    21.1930    60.4925 H          1           0.4326
     14 C8         22.0970    20.0171    61.6648 C.3        1          -0.0047
     15 C9         22.2864    18.9811    62.7749 C.3        1          -0.1408
     16 C10        22.1181    14.6193    63.7293 C.ar       1           0.3787
     17 N5         23.0531    13.6694    63.7463 N.ar       1          -0.5781
     18 C11        22.7262    12.4092    63.9295 C.ar       1           0.3943
     19 N6         21.4779    12.0145    64.1089 N.ar       1          -0.5980
     20 C12        18.5172    15.5901    63.9827 C.ar       1          -0.0387
     21 C13        17.9014    15.1738    65.1502 C.ar       1          -0.0647
     22 C14        16.5097    15.2830    65.2717 C.ar       1          -0.1308
     23 C15        15.8451    14.8704    66.4454 C.ar       1          -0.0199
     24 C16        14.4899    15.0035    66.5004 C.ar       1          -0.1650
     25 C17        13.7967    15.5386    65.4077 C.ar       1           0.3670
     26 O1         12.4487    15.6652    65.4774 O.3        1          -0.2875
     27 C18        11.7235    15.5666    64.2500 C.3        1           0.0260
     28 C19        10.7388    14.3983    64.3319 C.3        1           0.4633
     29 F1          9.8447    14.6150    65.3857 F          1          -0.1730
     30 F2         10.0290    14.3017    63.1302 F          1          -0.1673
     31 F3         11.4426    13.2099    64.5544 F          1          -0.1723
     32 N7         14.4214    15.9219    64.3154 N.ar       1          -0.5399
     33 C20        15.7503    15.8167    64.2010 C.ar       1           0.1833
     34 C21        16.4067    16.2301    63.0280 C.ar       1          -0.0930
     35 C22        17.7572    16.1230    62.9294 C.ar       1          -0.0633
     36 H3         18.9789    11.5265    64.4233 H          1           0.4148
     37 H4         18.4483    13.1144    64.2815 H          1           0.4141
     38 H5         23.5822    17.3210    64.2641 H          1           0.1086
     39 H6         24.1657    16.1362    63.0707 H          1           0.1019
     40 H7         22.4980    17.3071    61.4322 H          1           0.0962
     41 H8         25.0021    18.7195    62.4635 H          1           0.0937
     42 H9         24.9483    17.4501    61.2159 H          1           0.1119
     43 H10        25.0870    19.7031    60.1880 H          1           0.1343
     44 H11        23.5441    18.9118    59.7885 H          1           0.1286
     45 H12        21.5374    20.8676    62.0539 H          1           0.1370
     46 H13        21.5456    19.5674    60.8390 H          1           0.1310
     47 H14        21.3118    18.6431    63.1274 H          1           0.1184
     48 H15        22.8374    19.4298    63.6014 H          1           0.0941
     49 H16        23.5103    11.6667    63.9373 H          1           0.2082
     50 H17        18.4887    14.7680    65.9608 H          1           0.1404
     51 H18        16.3958    14.4594    67.2786 H          1           0.1553
     52 H19        13.9516    14.6965    67.3849 H          1           0.1557
     53 H20        11.1751    16.4923    64.0765 H          1           0.1173
     54 H21        12.4202    15.3976    63.4290 H          1           0.1179
     55 H22        15.8366    16.6382    62.2064 H          1           0.1456
     56 H23        18.2527    16.4476    62.0263 H          1           0.1377
@<TRIPOS>BOND
     1    1    2 1
     2    1   36 1
     3    1   37 1
     4    2   19 ar
     5    2    3 ar
     6    3   16 ar
     7    3    4 1
     8    4    5 2
     9    4   20 1
    10    5    6 1
    11    6    7 1
    12    6   16 1
    13    7    8 1
    14    7   38 1
    15    7   39 1
    16    8   15 1
    17    8    9 1
    18    8   40 1
    19    9   10 1
    20    9   41 1
    21    9   42 1
    22   10   11 1
    23   10   43 1
    24   10   44 1
    25   11   12 1
    26   11   13 1
    27   11   14 1
    28   14   15 1
    29   14   45 1
    30   14   46 1
    31   15   47 1
    32   15   48 1
    33   16   17 ar
    34   17   18 ar
    35   18   19 ar
    36   18   49 1
    37   20   35 ar
    38   20   21 ar
    39   21   22 ar
    40   21   50 1
    41   22   33 ar
    42   22   23 ar
    43   23   24 ar
    44   23   51 1
    45   24   25 ar
    46   24   52 1
    47   25   26 1
    48   25   32 ar
    49   26   27 1
    50   27   28 1
    51   27   53 1
    52   27   54 1
    53   28   29 1
    54   28   30 1
    55   28   31 1
    56   32   33 ar
    57   33   34 ar
    58   34   35 ar
    59   34   55 1
    60   35   56 1
##########                 Name:                 1563
##########          Protonation:                   86
##########               SMILES:   c1cc(nc2c1cc(cc2)c3c4c(ncnc4n(n3)CC5CC[NH2+]CC5)N)OCC(F)(F)F
##########            Long Name:   yl)-3-[2-(2,2,2-trifluoroethoxy)-6-quinolyl]pyrazolo[3,4-d]pyrimidin-4-amine
##########          FlexRecCode: 1
##########               Number:                   71
##########   Ligand Source File: /raid1/people/rgc/Examples/tdt/part3/ligand22set/build/ligand22set-0000001.db2.g
##########           GlobalRank: 6
##########                 Rank:                    2
##########               Setnum:                  140
##########             Matchnum:                 1024
##########                Cloud:                    1
##########        Electrostatic:           -33.387096
##########        Van der Waals:           -26.640663
##########  Ligand Polar Desolv:            15.830498
########## Ligand Apolar Desolv:            -4.255274
##########      Internal Energy:             0.000000
##########      Receptor Energy: 0.0
########## Receptor Desolvation:             0.000000
########## Receptor Hydrophobic:             0.000000
##########         Total Energy: -48.45
##########        Ligand Charge:             1.000000
##########            Arbitrary:    +999.9990
##########     heavy atom count:   33
##########           pose count:   10
##########        Ligand Energy:             0.000000
# num electro vdwattr vdwrepu polsolv apolsol rdesolv rhydroe totalscore fullpol fullapo
#   1   -0.17   -4.88    4.81   -5.40    0.52    0.00    0.00      -5.12   -8.45    0.81
#   2    1.70   -2.49    0.54    2.44   -1.38    0.00    0.00       0.81    3.81   -2.15
#   3   -1.55   -1.66    0.28   -1.67   -0.26    0.00    0.00      -4.85   -2.84   -0.44
#   4    1.74   -1.66    0.25    0.77   -0.39    0.00    0.00       0.71    1.47   -0.75
#   5   -2.14   -2.00    0.64   -1.10    0.51    0.00    0.00      -4.09   -2.37    1.09
#   6   -0.60   -1.50    0.33   -1.69    0.41    0.00    0.00      -3.05   -4.06    0.98
#   7   -0.51   -0.77    0.08    0.71   -0.17    0.00    0.00      -0.67    1.77   -0.43
#   8    1.13   -0.72    0.07   -0.88   -0.06    0.00    0.00      -0.47   -2.10   -0.15
#   9    2.10   -0.63    0.05   -1.20   -0.08    0.00    0.00       0.23   -3.45   -0.22
#  10    0.15   -1.45    0.72    0.33   -0.19    0.00    0.00      -0.44    0.81   -0.47
#  11   12.80   -1.71    0.57   -6.79    0.37    0.00    0.00       5.24  -16.39    0.89
#  12   -9.34   -0.03    0.00    4.98    0.16    0.00    0.00      -4.22   16.94    0.56
#  13  -14.08   -0.08    0.01    7.41    0.23    0.00    0.00      -6.51   18.09    0.57
#  14    0.09   -1.38    0.33    0.32   -0.23    0.00    0.00      -0.87    0.64   -0.47
#  15    1.42   -1.24    0.34   -1.63   -0.10    0.00    0.00      -1.21   -3.60   -0.22
#  16    0.77   -1.79    0.74    1.38   -1.09    0.00    0.00       0.02    2.78   -2.20
#  17    0.07   -2.15    0.60   -2.35    1.07    0.00    0.00      -2.76   -4.59    2.09
#  18    1.31   -4.60    3.61    1.69   -1.87    0.00    0.00       0.14    2.86   -3.16
#  19   -3.60   -4.80    3.05   -2.81    1.37    0.00    0.00      -6.80   -4.27    2.08
#  20   -0.52   -1.99    0.36   -0.22   -0.22    0.00    0.00      -2.59   -0.38   -0.38
#  21   -0.71   -2.13    0.40   -0.26   -0.20    0.00    0.00      -2.90   -0.41   -0.31
#  22   -1.47   -2.61    0.93   -0.88   -0.26    0.00    0.00      -4.29   -1.34   -0.40
#  23   -0.11   -3.26    0.98    0.08   -0.30    0.00    0.00      -2.61    0.12   -0.46
#  24   -1.11   -3.36    1.11   -1.12   -0.30    0.00    0.00      -4.77   -1.71   -0.46
#  25    3.61   -2.36    0.72    1.18   -0.43    0.00    0.00       2.72    1.80   -0.66
#  26   -2.51   -2.11    0.56   -0.97    0.57    0.00    0.00      -4.46   -1.48    0.86
#  27    0.19   -1.39    0.28    0.16   -0.06    0.00    0.00      -0.83    0.24   -0.10
#  28    2.69   -1.55    0.41    1.09   -0.04    0.00    0.00       2.59    1.73   -0.07
#  29   -0.93   -2.08    1.60   -0.30   -0.31    0.00    0.00      -2.01   -0.46   -0.48
#  30   -0.54   -1.70    1.67   -0.37   -0.30    0.00    0.00      -1.24   -0.60   -0.48
#  31   -1.19   -2.50    2.31   -0.27   -0.30    0.00    0.00      -1.95   -0.43   -0.48
#  32   -6.10   -2.61    1.19   -1.95    1.73    0.00    0.00      -7.74   -3.15    2.80
#  33    2.43   -2.96    1.68    0.56   -0.43    0.00    0.00       1.28    0.95   -0.73
#  34   -1.10   -4.20    2.41   -0.59   -0.28    0.00    0.00      -3.76   -0.97   -0.46
#  35   -0.87   -3.62    2.16   -0.29   -0.26    0.00    0.00      -2.88   -0.50   -0.45
#  36   -4.13   -0.20    0.08    3.26    0.39    0.00    0.00      -0.61    4.95    0.59
#  37    1.66   -0.09    0.02    2.39    0.18    0.00    0.00       4.15    4.73    0.36
#  38   -0.28   -0.31    0.03    0.41   -0.09    0.00    0.00      -0.24    1.23   -0.28
#  39   -0.47   -0.19    0.02    0.41   -0.05    0.00    0.00      -0.28    2.17   -0.28
#  40   -0.97   -0.36    0.14    0.31   -0.09    0.00    0.00      -0.96    0.99   -0.28
#  41   -1.11   -0.14    0.00    0.34   -0.03    0.00    0.00      -0.94    2.72   -0.28
#  42   -1.48   -0.22    0.03    0.09   -0.06    0.00    0.00      -1.64    0.37   -0.24
#  43   -4.51   -1.16    4.30    1.60   -0.09    0.00    0.00       0.13    5.00   -0.28
#  44   -3.82   -0.64    0.26    1.59   -0.12    0.00    0.00      -2.74    3.58   -0.28
#  45   -2.51   -0.87    0.97    2.81   -0.13    0.00    0.00       0.27    6.01   -0.28
#  46   -2.62   -0.36    0.04    1.61   -0.12    0.00    0.00      -1.43    3.88   -0.28
#  47   -0.43   -0.89    2.15    0.71   -0.10    0.00    0.00       1.44    1.93   -0.28
#  48   -0.92   -0.50    0.14    1.31   -0.11    0.00    0.00      -0.08    3.36   -0.28
#  49   -0.09   -2.55    9.16    1.54   -0.16    0.00    0.00       7.91    2.75   -0.28
#  50    1.09   -0.46    0.09    1.17   -0.12    0.00    0.00       1.77    2.33   -0.24
#  51    0.04   -0.79    0.20    2.20   -0.17    0.00    0.00       1.46    3.52   -0.28
#  52    0.67   -1.27    1.42    1.12   -0.17    0.00    0.00       1.78    1.82   -0.28
#  53    0.79   -0.82    0.91    0.53   -0.14    0.00    0.00       1.26    1.02   -0.28
#  54    1.00   -0.39    0.07    0.43   -0.13    0.00    0.00       0.98    0.94   -0.28
#  55    0.34   -1.98    5.00    0.78   -0.18    0.00    0.00       3.96    1.23   -0.28
#  56    1.30   -1.42    4.09    0.89   -0.16    0.00    0.00       4.70    1.61   -0.28

@<TRIPOS>MOLECULE
             1563        86
   56    60     0     0     0



@<TRIPOS>ATOM
      1 N1         19.0490    12.4272    64.2882 N.pl3      1          -0.8259
      2 C1         20.2995    12.9020    63.9426 C.ar       1           0.5216
      3 C2         20.5013    14.2647    63.6677 C.ar       1          -0.3262
      4 C3         19.6485    15.4529    63.6457 C.2        1           0.1849
      5 N2         20.4051    16.4719    63.3119 N.2        1          -0.2418
      6 N3         21.7200    16.0407    63.1072 N.pl3      1          -0.3864
      7 C4         22.8424    16.9003    62.7230 C.3        1           0.1483
      8 C5         22.4031    17.8404    61.5988 C.3        1          -0.1198
      9 C6         23.6375    18.3783    60.8691 C.3        1          -0.1427
     10 C7         23.1951    19.3784    59.7988 C.3        1          -0.0058
     11 N4         22.4752    20.4905    60.4308 N.4        1          -0.5055
     12 H1         23.0664    20.9208    61.1259 H          1           0.4285
     13 H2         22.2306    21.1734    59.7294 H          1           0.4326
     14 C8         21.2521    19.9921    61.0714 C.3        1          -0.0047
     15 C9         21.6197    19.0157    62.1907 C.3        1          -0.1408
     16 C10        21.7950    14.6963    63.3203 C.ar       1           0.3787
     17 N5         22.7760    13.7955    63.2665 N.ar       1          -0.5781
     18 C11        22.5401    12.5297    63.5326 C.ar       1           0.3943
     19 N6         21.3428    12.0818    63.8672 N.ar       1          -0.5980
     20 C12        18.1975    15.4977    63.9445 C.ar       1          -0.0387
     21 C13        17.7391    15.1023    65.1891 C.ar       1          -0.0647
     22 C14        16.3658    15.1475    65.4637 C.ar       1          -0.1308
     23 C15        15.8594    14.7536    66.7199 C.ar       1          -0.0199
     24 C16        14.5136    14.8217    66.9234 C.ar       1          -0.1650
     25 C17        13.6750    15.2741    65.8972 C.ar       1           0.3670
     26 O1         12.3383    15.3367    66.1148 O.3        1          -0.2875
     27 C18        11.4872    15.1494    64.9822 C.3        1           0.0260
     28 C19        10.5824    13.9384    65.2189 C.3        1           0.4633
     29 F1          9.8009    14.1559    66.3586 F          1          -0.1730
     30 F2          9.7493    13.7549    64.1101 F          1          -0.1673
     31 F3         11.3699    12.7970    65.4044 F          1          -0.1723
     32 N7         14.1524    15.6403    64.7276 N.ar       1          -0.5399
     33 C20        15.4640    15.5962    64.4669 C.ar       1           0.1833
     34 C21        15.9622    15.9905    63.2124 C.ar       1          -0.0930
     35 C22        17.2972    15.9462    62.9651 C.ar       1          -0.0633
     36 H3         18.9245    11.4847    64.4814 H          1           0.4148
     37 H4         18.2964    13.0368    64.3415 H          1           0.4141
     38 H5         23.1613    17.4878    63.5840 H          1           0.1086
     39 H6         23.6713    16.2829    62.3773 H          1           0.1019
     40 H7         21.7706    17.2979    60.8961 H          1           0.0962
     41 H8         24.2940    18.8758    61.5830 H          1           0.0937
     42 H9         24.1702    17.5525    60.3978 H          1           0.1119
     43 H10        24.0715    19.7631    59.2773 H          1           0.1343
     44 H11        22.5387    18.8799    59.0855 H          1           0.1286
     45 H12        20.6942    20.8299    61.4894 H          1           0.1370
     46 H13        20.6372    19.4804    60.3309 H          1           0.1310
     47 H14        20.7103    18.6455    62.6639 H          1           0.1184
     48 H15        22.2344    19.5265    62.9320 H          1           0.0941
     49 H16        23.3593    11.8280    63.4790 H          1           0.2082
     50 H17        18.4342    14.7613    65.9424 H          1           0.1404
     51 H18        16.5210    14.4068    67.5000 H          1           0.1553
     52 H19        14.0946    14.5269    67.8742 H          1           0.1557
     53 H20        10.8737    16.0384    64.8376 H          1           0.1173
     54 H21        12.0962    14.9798    64.0943 H          1           0.1179
     55 H22        15.2830    16.3340    62.4462 H          1           0.1456
     56 H23        17.6707    16.2557    62.0001 H          1           0.1377
@<TRIPOS>BOND
     1    1    2 1
     2    1   36 1
     3    1   37 1
     4    2   19 ar
     5    2    3 ar
     6    3   16 ar
     7    3    4 1
     8    4    5 2
     9    4   20 1
    10    5    6 1
    11    6    7 1
    12    6   16 1
    13    7    8 1
    14    7   38 1
    15    7   39 1
    16    8   15 1
    17    8    9 1
    18    8   40 1
    19    9   10 1
    20    9   41 1
    21    9   42 1
    22   10   11 1
    23   10   43 1
    24   10   44 1
    25   11   12 1
    26   11   13 1
    27   11   14 1
    28   14   15 1
    29   14   45 1
    30   14   46 1
    31   15   47 1
    32   15   48 1
    33   16   17 ar
    34   17   18 ar
    35   18   19 ar
    36   18   49 1
    37   20   35 ar
    38   20   21 ar
    39   21   22 ar
    40   21   50 1
    41   22   33 ar
    42   22   23 ar
    43   23   24 ar
    44   23   51 1
    45   24   25 ar
    46   24   52 1
    47   25   26 1
    48   25   32 ar
    49   26   27 1
    50   27   28 1
    51   27   53 1
    52   27   54 1
    53   28   29 1
    54   28   30 1
    55   28   31 1
    56   32   33 ar
    57   33   34 ar
    58   34   35 ar
    59   34   55 1
    60   35   56 1
##########                 Name:                 1563
##########          Protonation:                   86
##########               SMILES:   c1cc(nc2c1cc(cc2)c3c4c(ncnc4n(n3)CC5CC[NH2+]CC5)N)OCC(F)(F)F
##########            Long Name:   yl)-3-[2-(2,2,2-trifluoroethoxy)-6-quinolyl]pyrazolo[3,4-d]pyrimidin-4-amine
##########          FlexRecCode: 1
##########               Number:                   64
##########   Ligand Source File: /raid1/people/rgc/Examples/tdt/part3/ligand22set/build/ligand22set-0000001.db2.g
##########           GlobalRank: 6
##########                 Rank:                    1
##########               Setnum:                  211
##########             Matchnum:                29775
##########                Cloud:                    1
##########        Electrostatic:           -26.779758
##########        Van der Waals:           -29.812384
##########  Ligand Polar Desolv:            12.843257
########## Ligand Apolar Desolv:            -3.788731
##########      Internal Energy:             0.000000
##########      Receptor Energy: 0.0
########## Receptor Desolvation:             0.000000
########## Receptor Hydrophobic:             0.000000
##########         Total Energy: -47.54
##########        Ligand Charge:             1.000000
##########            Arbitrary:    +999.9990
##########     heavy atom count:   33
##########           pose count:   10
##########        Ligand Energy:             0.000000
# num electro vdwattr vdwrepu polsolv apolsol rdesolv rhydroe totalscore fullpol fullapo
#   1   -2.69   -2.31    0.37   -5.36    0.51    0.00    0.00      -9.48   -8.45    0.81
#   2    1.71   -1.97    0.46    2.27   -1.28    0.00    0.00       1.19    3.81   -2.15
#   3   -1.20   -1.66    0.39   -1.41   -0.22    0.00    0.00      -4.10   -2.84   -0.44
#   4    1.65   -2.19    0.94    0.70   -0.36    0.00    0.00       0.73    1.47   -0.75
#   5   -1.49   -3.35    3.21   -1.12    0.52    0.00    0.00      -2.23   -2.37    1.09
#   6   -0.05   -1.80    0.36   -1.81    0.44    0.00    0.00      -2.87   -4.06    0.98
#   7   -0.62   -1.45    0.36    0.76   -0.18    0.00    0.00      -1.14    1.77   -0.43
#   8    1.15   -0.64    0.04   -0.76   -0.05    0.00    0.00      -0.26   -2.10   -0.15
#   9    1.39   -0.70    0.08   -0.98   -0.06    0.00    0.00      -0.27   -3.45   -0.22
#  10    0.09   -0.61    0.10    0.23   -0.13    0.00    0.00      -0.33    0.81   -0.47
#  11   11.93   -1.41    0.49   -5.84    0.32    0.00    0.00       5.49  -16.39    0.89
#  12   -9.30   -0.03    0.00    4.87    0.16    0.00    0.00      -4.29   16.94    0.56
#  13  -12.79   -0.06    0.01    6.06    0.19    0.00    0.00      -6.60   18.09    0.57
#  14    0.11   -1.08    0.21    0.28   -0.20    0.00    0.00      -0.69    0.64   -0.47
#  15    1.90   -0.79    0.06   -1.57   -0.10    0.00    0.00      -0.49   -3.60   -0.22
#  16    0.21   -1.59    0.31    1.20   -0.95    0.00    0.00      -0.82    2.78   -2.20
#  17    0.91   -1.59    0.28   -2.01    0.92    0.00    0.00      -1.51   -4.59    2.09
#  18   -1.17   -2.77    1.71    1.42   -1.57    0.00    0.00      -2.38    2.86   -3.16
#  19   -1.16   -3.17    1.18   -2.47    1.20    0.00    0.00      -4.42   -4.27    2.08
#  20   -0.58   -2.22    0.75   -0.21   -0.21    0.00    0.00      -2.47   -0.38   -0.38
#  21   -0.90   -2.68    1.06   -0.24   -0.18    0.00    0.00      -2.94   -0.41   -0.31
#  22   -1.89   -2.39    0.52   -0.88   -0.26    0.00    0.00      -4.89   -1.34   -0.40
#  23   -0.21   -3.99    3.52    0.08   -0.31    0.00    0.00      -0.90    0.12   -0.46
#  24   -1.56   -3.46    1.85   -1.12   -0.30    0.00    0.00      -4.59   -1.71   -0.46
#  25    4.07   -2.39    0.75    1.18   -0.43    0.00    0.00       3.17    1.80   -0.66
#  26   -2.71   -1.81    0.29   -0.96    0.56    0.00    0.00      -4.63   -1.48    0.86
#  27    0.23   -1.89    1.03    0.16   -0.07    0.00    0.00      -0.54    0.24   -0.10
#  28    2.89   -1.54    0.44    1.11   -0.04    0.00    0.00       2.86    1.73   -0.07
#  29   -1.01   -1.88    1.86   -0.29   -0.30    0.00    0.00      -1.61   -0.46   -0.48
#  30   -0.48   -2.58    1.91   -0.37   -0.30    0.00    0.00      -1.83   -0.60   -0.48
#  31   -1.12   -0.97    0.12   -0.28   -0.31    0.00    0.00      -2.55   -0.43   -0.48
#  32   -6.71   -2.88    1.60   -1.89    1.68    0.00    0.00      -8.20   -3.15    2.80
#  33    2.76   -2.63    0.83    0.57   -0.44    0.00    0.00       1.09    0.95   -0.73
#  34   -1.26   -3.64    1.81   -0.58   -0.27    0.00    0.00      -3.94   -0.97   -0.46
#  35   -0.90   -2.93    1.41   -0.28   -0.25    0.00    0.00      -2.95   -0.50   -0.45
#  36    0.39   -0.05    0.00    3.10    0.37    0.00    0.00       3.81    4.95    0.59
#  37    1.94   -0.03    0.00    2.20    0.17    0.00    0.00       4.27    4.73    0.36
#  38   -0.35   -0.76    0.27    0.58   -0.13    0.00    0.00      -0.39    1.23   -0.28
#  39   -0.51   -0.86    0.90    0.77   -0.10    0.00    0.00       0.20    2.17   -0.28
#  40   -0.93   -0.14    0.01    0.14   -0.04    0.00    0.00      -0.97    0.99   -0.28
#  41   -0.73   -0.39    0.10    0.74   -0.08    0.00    0.00      -0.35    2.72   -0.28
#  42   -0.85   -0.25    0.08    0.06   -0.04    0.00    0.00      -1.00    0.37   -0.24
#  43   -1.48   -0.12    0.01    0.53   -0.03    0.00    0.00      -1.09    5.00   -0.28
#  44   -2.31   -0.25    0.08    0.65   -0.05    0.00    0.00      -1.89    3.58   -0.28
#  45   -3.72   -0.51    0.26    2.30   -0.11    0.00    0.00      -1.78    6.01   -0.28
#  46   -3.33   -0.41    0.10    1.41   -0.10    0.00    0.00      -2.33    3.88   -0.28
#  47   -1.14   -0.22    0.02    0.50   -0.07    0.00    0.00      -0.92    1.93   -0.28
#  48   -1.33   -0.49    0.19    1.15   -0.10    0.00    0.00      -0.57    3.36   -0.28
#  49   -2.00   -1.34    5.58    1.14   -0.12    0.00    0.00       3.27    2.75   -0.28
#  50    1.57   -1.15    2.59    1.23   -0.13    0.00    0.00       4.11    2.33   -0.24
#  51    1.14   -1.38    1.72    2.21   -0.18    0.00    0.00       3.52    3.52   -0.28
#  52    0.97   -1.05    0.66    1.08   -0.17    0.00    0.00       1.49    1.82   -0.28
#  53    1.15   -1.62    6.08    0.57   -0.16    0.00    0.00       6.03    1.02   -0.28
#  54    1.02   -0.58    0.18    0.47   -0.14    0.00    0.00       0.95    0.94   -0.28
#  55    1.35   -1.61    3.33    0.77   -0.18    0.00    0.00       3.66    1.23   -0.28
#  56    1.15   -0.82    0.84    0.79   -0.14    0.00    0.00       1.82    1.61   -0.28

@<TRIPOS>MOLECULE
             1563        86
   56    60     0     0     0



@<TRIPOS>ATOM
      1 N1         20.0667    12.9944    63.6617 N.pl3      1          -0.8259
      2 C1         21.2882    13.6278    63.5375 C.ar       1           0.5216
      3 C2         21.3890    15.0248    63.6454 C.ar       1          -0.3262
      4 C3         20.4426    16.1150    63.8806 C.2        1           0.1849
      5 N2         21.1268    17.2348    63.8782 N.2        1          -0.2418
      6 N3         22.4810    16.9640    63.6551 N.pl3      1          -0.3864
      7 C4         23.5448    17.9690    63.5867 C.3        1           0.1483
      8 C5         23.7058    18.4435    62.1412 C.3        1          -0.1198
      9 C6         24.8108    19.5014    62.0694 C.3        1          -0.1427
     10 C7         24.9121    20.0290    60.6365 C.3        1          -0.0058
     11 N4         23.6322    20.6284    60.2403 N.4        1          -0.5055
     12 H1         23.3873    21.3578    60.8930 H          1           0.4285
     13 H2         23.7183    21.0216    59.3150 H          1           0.4326
     14 C8         22.5817    19.6033    60.2374 C.3        1          -0.0047
     15 C9         22.3907    19.0595    61.6550 C.3        1          -0.1408
     16 C10        22.6571    15.6200    63.5111 C.ar       1           0.3787
     17 N5         23.7109    14.8349    63.2873 N.ar       1          -0.5781
     18 C11        23.5686    13.5312    63.1941 C.ar       1           0.3943
     19 N6         22.3983    12.9301    63.3184 N.ar       1          -0.5980
     20 C12        18.9806    15.9800    64.0832 C.ar       1          -0.0387
     21 C13        18.4756    15.8184    65.3617 C.ar       1          -0.0647
     22 C14        17.0921    15.6915    65.5448 C.ar       1          -0.1308
     23 C15        16.5386    15.5259    66.8315 C.ar       1          -0.0199
     24 C16        15.1853    15.4086    66.9417 C.ar       1          -0.1650
     25 C17        14.3854    15.4543    65.7932 C.ar       1           0.3670
     26 O1         13.0406    15.3367    65.9187 O.3        1          -0.2875
     27 C18        12.2371    16.0068    64.9455 C.3        1           0.0260
     28 C19        10.9302    15.2369    64.7455 C.3        1           0.4633
     29 F1         10.2365    15.1725    65.9586 F          1          -0.1730
     30 F2         10.1435    15.8929    63.7927 F          1          -0.1673
     31 F3         11.2155    13.9409    64.3022 F          1          -0.1723
     32 N7         14.9068    15.6089    64.5955 N.ar       1          -0.5399
     33 C20        16.2280    15.7296    64.4223 C.ar       1           0.1833
     34 C21        16.7733    15.8947    63.1367 C.ar       1          -0.0930
     35 C22        18.1163    16.0224    62.9777 C.ar       1          -0.0633
     36 H3         20.0119    12.0286    63.5910 H          1           0.4148
     37 H4         19.2646    13.5152    63.8234 H          1           0.4141
     38 H5         23.2850    18.8168    64.2206 H          1           0.1086
     39 H6         24.4812    17.5308    63.9316 H          1           0.1019
     40 H7         23.9682    17.5970    61.5067 H          1           0.0962
     41 H8         24.5717    20.3237    62.7439 H          1           0.0937
     42 H9         25.7614    19.0551    62.3611 H          1           0.1119
     43 H10        25.6980    20.7822    60.5819 H          1           0.1343
     44 H11        25.1514    19.2059    59.9630 H          1           0.1286
     45 H12        21.6472    20.0424    59.8882 H          1           0.1370
     46 H13        22.8707    18.7895    59.5724 H          1           0.1310
     47 H14        21.6115    18.2972    61.6504 H          1           0.1184
     48 H15        22.1014    19.8726    62.3208 H          1           0.0941
     49 H16        24.4446    12.9263    63.0122 H          1           0.2082
     50 H17        19.1423    15.7901    66.2110 H          1           0.1404
     51 H18        17.1708    15.4926    67.7066 H          1           0.1553
     52 H19        14.7306    15.2804    67.9129 H          1           0.1557
     53 H20        12.0147    17.0165    65.2908 H          1           0.1173
     54 H21        12.7775    16.0568    64.0003 H          1           0.1179
     55 H22        16.1230    15.9251    62.2750 H          1           0.1456
     56 H23        18.5253    16.1535    61.9867 H          1           0.1377
@<TRIPOS>BOND
     1    1    2 1
     2    1   36 1
     3    1   37 1
     4    2   19 ar
     5    2    3 ar
     6    3   16 ar
     7    3    4 1
     8    4    5 2
     9    4   20 1
    10    5    6 1
    11    6    7 1
    12    6   16 1
    13    7    8 1
    14    7   38 1
    15    7   39 1
    16    8   15 1
    17    8    9 1
    18    8   40 1
    19    9   10 1
    20    9   41 1
    21    9   42 1
    22   10   11 1
    23   10   43 1
    24   10   44 1
    25   11   12 1
    26   11   13 1
    27   11   14 1
    28   14   15 1
    29   14   45 1
    30   14   46 1
    31   15   47 1
    32   15   48 1
    33   16   17 ar
    34   17   18 ar
    35   18   19 ar
    36   18   49 1
    37   20   35 ar
    38   20   21 ar
    39   21   22 ar
    40   21   50 1
    41   22   33 ar
    42   22   23 ar
    43   23   24 ar
    44   23   51 1
    45   24   25 ar
    46   24   52 1
    47   25   26 1
    48   25   32 ar
    49   26   27 1
    50   27   28 1
    51   27   53 1
    52   27   54 1
    53   28   29 1
    54   28   30 1
    55   28   31 1
    56   32   33 ar
    57   33   34 ar
    58   34   35 ar
    59   34   55 1
    60   35   56 1
##########                 Name:                 1563
##########          Protonation:                   86
##########               SMILES:   c1cc(nc2c1cc(cc2)c3c4c(ncnc4n(n3)CC5CC[NH2+]CC5)N)OCC(F)(F)F
##########            Long Name:   yl)-3-[2-(2,2,2-trifluoroethoxy)-6-quinolyl]pyrazolo[3,4-d]pyrimidin-4-amine
##########          FlexRecCode: 1
##########               Number:                   70
##########   Ligand Source File: /raid1/people/rgc/Examples/tdt/part3/ligand22set/build/ligand22set-0000001.db2.g
##########           GlobalRank: 6
##########                 Rank:                    1
##########               Setnum:                  159
##########             Matchnum:                64862
##########                Cloud:                    1
##########        Electrostatic:           -31.072508
##########        Van der Waals:           -24.743633
##########  Ligand Polar Desolv:            14.354672
########## Ligand Apolar Desolv:            -4.015085
##########      Internal Energy:             0.000000
##########      Receptor Energy: 0.0
########## Receptor Desolvation:             0.000000
########## Receptor Hydrophobic:             0.000000
##########         Total Energy: -45.48
##########        Ligand Charge:             1.000000
##########            Arbitrary:    +999.9990
##########     heavy atom count:   33
##########           pose count:   10
##########        Ligand Energy:             0.000000
# num electro vdwattr vdwrepu polsolv apolsol rdesolv rhydroe totalscore fullpol fullapo
#   1   -0.35   -4.43    3.40   -5.40    0.52    0.00    0.00      -6.26   -8.45    0.81
#   2    1.81   -2.61    0.70    2.44   -1.38    0.00    0.00       0.97    3.81   -2.15
#   3   -1.52   -1.70    0.28   -1.67   -0.26    0.00    0.00      -4.86   -2.84   -0.44
#   4    1.61   -1.72    0.34    0.75   -0.38    0.00    0.00       0.60    1.47   -0.75
#   5   -1.70   -2.09    0.72   -1.09    0.50    0.00    0.00      -3.66   -2.37    1.09
#   6   -0.67   -1.60    0.29   -1.76    0.42    0.00    0.00      -3.32   -4.06    0.98
#   7   -0.35   -0.99    0.14    0.72   -0.17    0.00    0.00      -0.65    1.77   -0.43
#   8    0.90   -0.65    0.04   -0.82   -0.06    0.00    0.00      -0.59   -2.10   -0.15
#   9    1.43   -1.35    0.95   -1.30   -0.08    0.00    0.00      -0.34   -3.45   -0.22
#  10    0.12   -1.50    0.57    0.36   -0.21    0.00    0.00      -0.67    0.81   -0.47
#  11   12.44   -2.13    1.74   -6.27    0.34    0.00    0.00       6.12  -16.39    0.89
#  12   -8.66   -0.03    0.00    5.17    0.17    0.00    0.00      -3.35   16.94    0.56
#  13  -17.11   -0.17    0.07    7.47    0.24    0.00    0.00      -9.50   18.09    0.57
#  14    0.08   -0.64    0.07    0.21   -0.16    0.00    0.00      -0.44    0.64   -0.47
#  15    1.41   -0.61    0.05   -1.14   -0.07    0.00    0.00      -0.36   -3.60   -0.22
#  16    0.86   -1.78    0.42    1.38   -1.09    0.00    0.00      -0.22    2.78   -2.20
#  17   -0.26   -2.41    0.77   -2.38    1.08    0.00    0.00      -3.19   -4.59    2.09
#  18    1.54   -5.32    5.49    1.69   -1.86    0.00    0.00       1.53    2.86   -3.16
#  19   -3.94   -5.44    4.18   -2.81    1.37    0.00    0.00      -6.64   -4.27    2.08
#  20   -0.52   -1.91    0.33   -0.22   -0.22    0.00    0.00      -2.54   -0.38   -0.38
#  21   -0.73   -2.07    0.35   -0.26   -0.19    0.00    0.00      -2.91   -0.41   -0.31
#  22   -1.62   -2.48    0.76   -0.87   -0.26    0.00    0.00      -4.47   -1.34   -0.40
#  23   -0.14   -3.00    0.89    0.08   -0.30    0.00    0.00      -2.47    0.12   -0.46
#  24   -1.39   -2.85    0.86   -1.10   -0.30    0.00    0.00      -4.77   -1.71   -0.46
#  25    3.95   -2.30    0.79    1.17   -0.43    0.00    0.00       3.19    1.80   -0.66
#  26   -2.63   -1.81    0.32   -0.97    0.57    0.00    0.00      -4.53   -1.48    0.86
#  27    0.20   -1.72    0.53    0.15   -0.06    0.00    0.00      -0.90    0.24   -0.10
#  28    2.13   -1.57    0.42    1.09   -0.04    0.00    0.00       2.02    1.73   -0.07
#  29   -0.85   -2.59    4.71   -0.28   -0.29    0.00    0.00       0.70   -0.46   -0.48
#  30    0.37   -3.20    6.65   -0.37   -0.29    0.00    0.00       3.16   -0.60   -0.48
#  31   -0.96   -1.20    0.23   -0.27   -0.30    0.00    0.00      -2.50   -0.43   -0.48
#  32   -6.18   -2.93    1.09   -1.89    1.68    0.00    0.00      -8.23   -3.15    2.80
#  33    2.61   -2.90    1.05    0.56   -0.43    0.00    0.00       0.89    0.95   -0.73
#  34   -1.19   -4.36    2.74   -0.59   -0.28    0.00    0.00      -3.69   -0.97   -0.46
#  35   -0.93   -3.35    1.94   -0.29   -0.26    0.00    0.00      -2.88   -0.50   -0.45
#  36   -3.71   -0.18    0.06    3.23    0.38    0.00    0.00      -0.23    4.95    0.59
#  37    1.67   -0.08    0.01    2.36    0.18    0.00    0.00       4.14    4.73    0.36
#  38   -0.12   -0.62    0.24    0.50   -0.11    0.00    0.00      -0.10    1.23   -0.28
#  39   -0.34   -0.23    0.02    0.49   -0.06    0.00    0.00      -0.12    2.17   -0.28
#  40   -0.69   -0.23    0.01    0.26   -0.07    0.00    0.00      -0.72    0.99   -0.28
#  41   -0.83   -0.49    0.39    0.76   -0.08    0.00    0.00      -0.24    2.72   -0.28
#  42   -0.73   -0.85    2.26    0.12   -0.08    0.00    0.00       0.72    0.37   -0.24
#  43   -3.16   -1.21    2.57    2.62   -0.15    0.00    0.00       0.67    5.00   -0.28
#  44   -2.70   -0.31    0.04    1.30   -0.10    0.00    0.00      -1.78    3.58   -0.28
#  45   -2.09   -0.15    0.01    0.81   -0.04    0.00    0.00      -1.46    6.01   -0.28
#  46   -2.57   -0.23    0.02    0.91   -0.07    0.00    0.00      -1.93    3.88   -0.28
#  47   -0.93   -0.35    0.08    0.50   -0.07    0.00    0.00      -0.77    1.93   -0.28
#  48   -0.83   -0.14    0.01    0.41   -0.03    0.00    0.00      -0.58    3.36   -0.28
#  49    0.30   -2.56    8.61    1.60   -0.16    0.00    0.00       7.79    2.75   -0.28
#  50    1.09   -0.47    0.09    1.17   -0.12    0.00    0.00       1.77    2.33   -0.24
#  51    0.21   -0.70    0.15    2.15   -0.17    0.00    0.00       1.64    3.52   -0.28
#  52    0.98   -0.81    0.45    1.05   -0.16    0.00    0.00       1.51    1.82   -0.28
#  53    0.87   -1.24    1.99    0.57   -0.16    0.00    0.00       2.03    1.02   -0.28
#  54    1.13   -0.48    0.12    0.43   -0.13    0.00    0.00       1.09    0.94   -0.28
#  55    0.31   -2.06    4.74    0.81   -0.18    0.00    0.00       3.62    1.23   -0.28
#  56    1.29   -0.92    1.20    0.81   -0.14    0.00    0.00       2.24    1.61   -0.28

@<TRIPOS>MOLECULE
             1563        86
   56    60     0     0     0



@<TRIPOS>ATOM
      1 N1         19.1710    12.4674    64.2861 N.pl3      1          -0.8259
      2 C1         20.4746    12.8865    64.1029 C.ar       1           0.5216
      3 C2         20.7736    14.2456    63.9113 C.ar       1          -0.3262
      4 C3         19.9887    15.4782    63.8458 C.2        1           0.1849
      5 N2         20.8278    16.4665    63.6428 N.2        1          -0.2418
      6 N3         22.1345    15.9728    63.5674 N.pl3      1          -0.3864
      7 C4         23.3344    16.7843    63.3483 C.3        1           0.1483
      8 C5         23.0727    17.7880    62.2238 C.3        1          -0.1198
      9 C6         22.7340    17.0354    60.9338 C.3        1          -0.1427
     10 C7         22.5518    18.0415    59.7955 C.3        1          -0.0058
     11 N4         23.7922    18.8034    59.6077 N.4        1          -0.5055
     12 H1         24.5532    18.1659    59.4278 H          1           0.4285
     13 H2         23.6861    19.4289    58.8231 H          1           0.4326
     14 C8         24.0849    19.5842    60.8157 C.3        1          -0.0047
     15 C9         24.3261    18.6373    61.9934 C.3        1          -0.1408
     16 C10        22.1181    14.6193    63.7293 C.ar       1           0.3787
     17 N5         23.0531    13.6694    63.7463 N.ar       1          -0.5781
     18 C11        22.7262    12.4092    63.9295 C.ar       1           0.3943
     19 N6         21.4779    12.0145    64.1089 N.ar       1          -0.5980
     20 C12        18.5172    15.5901    63.9827 C.ar       1          -0.0387
     21 C13        17.9014    15.1738    65.1502 C.ar       1          -0.0647
     22 C14        16.5097    15.2830    65.2717 C.ar       1          -0.1308
     23 C15        15.8451    14.8704    66.4454 C.ar       1          -0.0199
     24 C16        14.4899    15.0035    66.5004 C.ar       1          -0.1650
     25 C17        13.7967    15.5386    65.4077 C.ar       1           0.3670
     26 O1         12.4487    15.6652    65.4774 O.3        1          -0.2875
     27 C18        11.7235    15.5666    64.2500 C.3        1           0.0260
     28 C19        10.3316    14.9938    64.5246 C.3        1           0.4633
     29 F1          9.6456    15.8372    65.4051 F          1          -0.1730
     30 F2          9.6217    14.8971    63.3231 F          1          -0.1673
     31 F3         10.4548    13.7231    65.0969 F          1          -0.1723
     32 N7         14.4214    15.9219    64.3154 N.ar       1          -0.5399
     33 C20        15.7503    15.8167    64.2010 C.ar       1           0.1833
     34 C21        16.4067    16.2301    63.0280 C.ar       1          -0.0930
     35 C22        17.7572    16.1230    62.9294 C.ar       1          -0.0633
     36 H3         18.9789    11.5265    64.4233 H          1           0.4148
     37 H4         18.4483    13.1144    64.2815 H          1           0.4141
     38 H5         23.5822    17.3210    64.2641 H          1           0.1086
     39 H6         24.1657    16.1362    63.0707 H          1           0.1019
     40 H7         22.2397    18.4350    62.4990 H          1           0.0962
     41 H8         23.5459    16.3508    60.6880 H          1           0.0937
     42 H9         21.8114    16.4719    61.0728 H          1           0.1119
     43 H10        22.3102    17.5089    58.8756 H          1           0.1343
     44 H11        21.7395    18.7254    60.0422 H          1           0.1286
     45 H12        24.9752    20.1904    60.6492 H          1           0.1370
     46 H13        23.2400    20.2351    61.0407 H          1           0.1310
     47 H14        24.5415    19.2189    62.8898 H          1           0.1184
     48 H15        25.1711    17.9860    61.7696 H          1           0.0941
     49 H16        23.5103    11.6667    63.9373 H          1           0.2082
     50 H17        18.4887    14.7680    65.9608 H          1           0.1404
     51 H18        16.3958    14.4594    67.2786 H          1           0.1553
     52 H19        13.9516    14.6965    67.3849 H          1           0.1557
     53 H20        11.6275    16.5564    63.8041 H          1           0.1173
     54 H21        12.2579    14.9093    63.5641 H          1           0.1179
     55 H22        15.8366    16.6382    62.2064 H          1           0.1456
     56 H23        18.2527    16.4476    62.0263 H          1           0.1377
@<TRIPOS>BOND
     1    1    2 1
     2    1   36 1
     3    1   37 1
     4    2   19 ar
     5    2    3 ar
     6    3   16 ar
     7    3    4 1
     8    4    5 2
     9    4   20 1
    10    5    6 1
    11    6    7 1
    12    6   16 1
    13    7    8 1
    14    7   38 1
    15    7   39 1
    16    8   15 1
    17    8    9 1
    18    8   40 1
    19    9   10 1
    20    9   41 1
    21    9   42 1
    22   10   11 1
    23   10   43 1
    24   10   44 1
    25   11   12 1
    26   11   13 1
    27   11   14 1
    28   14   15 1
    29   14   45 1
    30   14   46 1
    31   15   47 1
    32   15   48 1
    33   16   17 ar
    34   17   18 ar
    35   18   19 ar
    36   18   49 1
    37   20   35 ar
    38   20   21 ar
    39   21   22 ar
    40   21   50 1
    41   22   33 ar
    42   22   23 ar
    43   23   24 ar
    44   23   51 1
    45   24   25 ar
    46   24   52 1
    47   25   26 1
    48   25   32 ar
    49   26   27 1
    50   27   28 1
    51   27   53 1
    52   27   54 1
    53   28   29 1
    54   28   30 1
    55   28   31 1
    56   32   33 ar
    57   33   34 ar
    58   34   35 ar
    59   34   55 1
    60   35   56 1
##########                 Name:                 1563
##########          Protonation:                   86
##########               SMILES:   c1cc(nc2c1cc(cc2)c3c4c(ncnc4n(n3)CC5CC[NH2+]CC5)N)OCC(F)(F)F
##########            Long Name:   yl)-3-[2-(2,2,2-trifluoroethoxy)-6-quinolyl]pyrazolo[3,4-d]pyrimidin-4-amine
##########          FlexRecCode: 1
##########               Number:                   71
##########   Ligand Source File: /raid1/people/rgc/Examples/tdt/part3/ligand22set/build/ligand22set-0000001.db2.g
##########           GlobalRank: 6
##########                 Rank:                    3
##########               Setnum:                  140
##########             Matchnum:                 2265
##########                Cloud:                    1
##########        Electrostatic:           -29.186350
##########        Van der Waals:           -26.735857
##########  Ligand Polar Desolv:            14.763260
########## Ligand Apolar Desolv:            -4.271778
##########      Internal Energy:             0.000000
##########      Receptor Energy: 0.0
########## Receptor Desolvation:             0.000000
########## Receptor Hydrophobic:             0.000000
##########         Total Energy: -45.43
##########        Ligand Charge:             1.000000
##########            Arbitrary:    +999.9990
##########     heavy atom count:   33
##########           pose count:   10
##########        Ligand Energy:             0.000000
# num electro vdwattr vdwrepu polsolv apolsol rdesolv rhydroe totalscore fullpol fullapo
#   1   -0.82   -5.02    6.27   -5.32    0.51    0.00    0.00      -4.37   -8.45    0.81
#   2    1.77   -2.43    0.59    2.42   -1.36    0.00    0.00       0.99    3.81   -2.15
#   3   -1.71   -1.63    0.25   -1.67   -0.26    0.00    0.00      -5.02   -2.84   -0.44
#   4    1.92   -1.72    0.29    0.77   -0.39    0.00    0.00       0.86    1.47   -0.75
#   5   -2.43   -2.26    0.99   -1.10    0.51    0.00    0.00      -4.30   -2.37    1.09
#   6   -0.90   -1.53    0.27   -1.74    0.42    0.00    0.00      -3.48   -4.06    0.98
#   7   -0.40   -0.84    0.08    0.73   -0.18    0.00    0.00      -0.60    1.77   -0.43
#   8    1.04   -0.69    0.05   -0.89   -0.06    0.00    0.00      -0.56   -2.10   -0.15
#   9    1.85   -0.56    0.03   -1.18   -0.08    0.00    0.00       0.06   -3.45   -0.22
#  10    0.13   -1.06    0.32    0.31   -0.18    0.00    0.00      -0.48    0.81   -0.47
#  11   12.06   -1.54    0.42   -6.58    0.36    0.00    0.00       4.71  -16.39    0.89
#  12   -8.78   -0.03    0.00    4.80    0.16    0.00    0.00      -3.85   16.94    0.56
#  13  -13.08   -0.05    0.00    6.83    0.22    0.00    0.00      -6.08   18.09    0.57
#  14    0.09   -1.44    0.42    0.30   -0.22    0.00    0.00      -0.86    0.64   -0.47
#  15    1.38   -1.39    0.42   -1.60   -0.10    0.00    0.00      -1.27   -3.60   -0.22
#  16    1.03   -1.69    0.44    1.38   -1.09    0.00    0.00       0.06    2.78   -2.20
#  17   -0.54   -2.05    0.48   -2.37    1.08    0.00    0.00      -3.41   -4.59    2.09
#  18    1.48   -3.92    2.22    1.70   -1.88    0.00    0.00      -0.40    2.86   -3.16
#  19   -3.07   -4.19    1.92   -2.81    1.37    0.00    0.00      -6.79   -4.27    2.08
#  20   -0.55   -2.08    0.41   -0.22   -0.22    0.00    0.00      -2.67   -0.38   -0.38
#  21   -0.79   -2.13    0.41   -0.26   -0.20    0.00    0.00      -2.96   -0.41   -0.31
#  22   -1.64   -2.64    1.09   -0.86   -0.26    0.00    0.00      -4.31   -1.34   -0.40
#  23   -0.16   -2.95    0.93    0.08   -0.29    0.00    0.00      -2.39    0.12   -0.46
#  24   -1.42   -2.81    0.87   -1.11   -0.30    0.00    0.00      -4.77   -1.71   -0.46
#  25    3.71   -2.25    0.73    1.17   -0.43    0.00    0.00       2.93    1.80   -0.66
#  26   -2.44   -1.85    0.36   -0.99    0.57    0.00    0.00      -4.34   -1.48    0.86
#  27    0.18   -1.58    0.38    0.15   -0.06    0.00    0.00      -0.93    0.24   -0.10
#  28    2.20   -1.40    0.34    1.09   -0.04    0.00    0.00       2.18    1.73   -0.07
#  29   -0.79   -1.48    0.64   -0.29   -0.30    0.00    0.00      -2.21   -0.46   -0.48
#  30   -0.10   -2.14    1.98   -0.37   -0.30    0.00    0.00      -0.93   -0.60   -0.48
#  31   -1.12   -1.39    0.34   -0.27   -0.31    0.00    0.00      -2.74   -0.43   -0.48
#  32   -5.64   -2.94    1.19   -1.90    1.69    0.00    0.00      -7.60   -3.15    2.80
#  33    2.35   -3.17    1.60    0.57   -0.44    0.00    0.00       0.90    0.95   -0.73
#  34   -0.93   -5.38    5.06   -0.60   -0.28    0.00    0.00      -2.12   -0.97   -0.46
#  35   -0.84   -4.17    3.49   -0.30   -0.27    0.00    0.00      -2.08   -0.50   -0.45
#  36   -2.96   -0.16    0.03    3.20    0.38    0.00    0.00       0.49    4.95    0.59
#  37    2.04   -0.11    0.03    2.32    0.18    0.00    0.00       4.45    4.73    0.36
#  38   -0.18   -0.41    0.07    0.47   -0.11    0.00    0.00      -0.15    1.23   -0.28
#  39   -0.38   -0.20    0.01    0.45   -0.06    0.00    0.00      -0.17    2.17   -0.28
#  40   -0.91   -0.29    0.08    0.27   -0.08    0.00    0.00      -0.93    0.99   -0.28
#  41   -0.97   -0.16    0.01    0.42   -0.04    0.00    0.00      -0.75    2.72   -0.28
#  42   -1.29   -0.16    0.01    0.06   -0.04    0.00    0.00      -1.42    0.37   -0.24
#  43   -3.51   -0.52    0.61    1.19   -0.07    0.00    0.00      -2.29    5.00   -0.28
#  44   -3.59   -0.51    0.19    1.38   -0.11    0.00    0.00      -2.64    3.58   -0.28
#  45   -2.59   -0.98    1.30    2.82   -0.13    0.00    0.00       0.42    6.01   -0.28
#  46   -2.67   -0.34    0.04    1.50   -0.11    0.00    0.00      -1.57    3.88   -0.28
#  47   -0.50   -0.99    2.64    0.74   -0.11    0.00    0.00       1.79    1.93   -0.28
#  48   -0.87   -0.63    0.23    1.42   -0.12    0.00    0.00       0.04    3.36   -0.28
#  49    0.53   -1.72    3.14    1.56   -0.16    0.00    0.00       3.35    2.75   -0.28
#  50    1.22   -0.41    0.05    1.18   -0.12    0.00    0.00       1.92    2.33   -0.24
#  51    0.41   -0.67    0.14    2.11   -0.17    0.00    0.00       1.82    3.52   -0.28
#  52    1.09   -0.89    0.81    1.06   -0.16    0.00    0.00       1.90    1.82   -0.28
#  53    0.67   -1.06    1.33    0.57   -0.16    0.00    0.00       1.36    1.02   -0.28
#  54    1.07   -0.50    0.09    0.44   -0.13    0.00    0.00       0.98    0.94   -0.28
#  55   -0.02   -2.85    9.86    0.82   -0.19    0.00    0.00       7.62    1.23   -0.28
#  56    1.17   -1.67    6.92    0.89   -0.16    0.00    0.00       7.16    1.61   -0.28

@<TRIPOS>MOLECULE
             1563        86
   56    60     0     0     0



@<TRIPOS>ATOM
      1 N1         18.8916    12.5696    64.3019 N.pl3      1          -0.8259
      2 C1         20.1706    13.0371    64.0685 C.ar       1           0.5216
      3 C2         20.4020    14.3957    63.7967 C.ar       1          -0.3262
      4 C3         19.5592    15.5856    63.6808 C.2        1           0.1849
      5 N2         20.3472    16.5984    63.4064 N.2        1          -0.2418
      6 N3         21.6739    16.1615    63.3304 N.pl3      1          -0.3864
      7 C4         22.8302    17.0136    63.0419 C.3        1           0.1483
      8 C5         22.5009    17.9405    61.8701 C.3        1          -0.1198
      9 C6         23.7997    18.4662    61.2520 C.3        1          -0.1427
     10 C7         23.4626    19.4538    60.1330 C.3        1          -0.0058
     11 N4         22.6908    20.5755    60.6813 N.4        1          -0.5055
     12 H1         23.2163    21.0131    61.4232 H          1           0.4285
     13 H2         22.5151    21.2500    59.9518 H          1           0.4326
     14 C8         21.4117    20.0881    61.2113 C.3        1          -0.0047
     15 C9         21.6700    19.1250    62.3720 C.3        1          -0.1408
     16 C10        21.7239    14.8198    63.5661 C.ar       1           0.3787
     17 N5         22.7025    13.9160    63.6151 N.ar       1          -0.5781
     18 C11        22.4383    12.6543    63.8736 C.ar       1           0.3943
     19 N6         21.2135    12.2135    64.1007 N.ar       1          -0.5980
     20 C12        18.0868    15.6376    63.8425 C.ar       1          -0.0387
     21 C13        17.5131    15.2590    65.0438 C.ar       1          -0.0647
     22 C14        16.1203    15.3110    65.1887 C.ar       1          -0.1308
     23 C15        15.4978    14.9342    66.3970 C.ar       1          -0.0199
     24 C16        14.1391    15.0080    66.4734 C.ar       1          -0.1650
     25 C17        13.4013    15.4495    65.3681 C.ar       1           0.3670
     26 O1         12.0504    15.5180    65.4594 O.3        1          -0.2875
     27 C18        11.3079    15.3185    64.2548 C.3        1           0.0260
     28 C19        10.3807    14.1128    64.4212 C.3        1           0.4633
     29 F1          9.4972    14.3465    65.4803 F          1          -0.1730
     30 F2          9.6538    13.9173    63.2419 F          1          -0.1673
     31 F3         11.1433    12.9719    64.6932 F          1          -0.1723
     32 N7         13.9869    15.7998    64.2435 N.ar       1          -0.5399
     33 C20        15.3169    15.7492    64.1068 C.ar       1           0.1833
     34 C21        15.9312    16.1265    62.8994 C.ar       1          -0.0930
     35 C22        17.2832    16.0759    62.7781 C.ar       1          -0.0633
     36 H3         18.7463    11.6300    64.4942 H          1           0.4148
     37 H4         18.1395    13.1817    64.2773 H          1           0.4141
     38 H5         23.0697    17.6111    63.9216 H          1           0.1086
     39 H6         23.6856    16.3898    62.7825 H          1           0.1019
     40 H7         21.9346    17.3907    61.1183 H          1           0.0962
     41 H8         24.3887    18.9710    62.0178 H          1           0.0937
     42 H9         24.3711    17.6332    60.8426 H          1           0.1119
     43 H10        24.3850    19.8298    59.6906 H          1           0.1343
     44 H11        22.8736    18.9478    59.3677 H          1           0.1286
     45 H12        20.8203    20.9325    61.5651 H          1           0.1370
     46 H13        20.8666    19.5686    60.4231 H          1           0.1310
     47 H14        20.7191    18.7630    62.7629 H          1           0.1184
     48 H15        22.2148    19.6436    63.1609 H          1           0.0941
     49 H16        23.2564    11.9499    63.9052 H          1           0.2082
     50 H17        18.1338    14.9259    65.8627 H          1           0.1404
     51 H18        16.0826    14.5956    67.2395 H          1           0.1553
     52 H19        13.6324    14.7263    67.3846 H          1           0.1557
     53 H20        10.7136    16.2071    64.0428 H          1           0.1173
     54 H21        11.9963    15.1362    63.4296 H          1           0.1179
     55 H22        15.3275    16.4620    62.0691 H          1           0.1456
     56 H23        17.7461    16.3723    61.8483 H          1           0.1377
@<TRIPOS>BOND
     1    1    2 1
     2    1   36 1
     3    1   37 1
     4    2   19 ar
     5    2    3 ar
     6    3   16 ar
     7    3    4 1
     8    4    5 2
     9    4   20 1
    10    5    6 1
    11    6    7 1
    12    6   16 1
    13    7    8 1
    14    7   38 1
    15    7   39 1
    16    8   15 1
    17    8    9 1
    18    8   40 1
    19    9   10 1
    20    9   41 1
    21    9   42 1
    22   10   11 1
    23   10   43 1
    24   10   44 1
    25   11   12 1
    26   11   13 1
    27   11   14 1
    28   14   15 1
    29   14   45 1
    30   14   46 1
    31   15   47 1
    32   15   48 1
    33   16   17 ar
    34   17   18 ar
    35   18   19 ar
    36   18   49 1
    37   20   35 ar
    38   20   21 ar
    39   21   22 ar
    40   21   50 1
    41   22   33 ar
    42   22   23 ar
    43   23   24 ar
    44   23   51 1
    45   24   25 ar
    46   24   52 1
    47   25   26 1
    48   25   32 ar
    49   26   27 1
    50   27   28 1
    51   27   53 1
    52   27   54 1
    53   28   29 1
    54   28   30 1
    55   28   31 1
    56   32   33 ar
    57   33   34 ar
    58   34   35 ar
    59   34   55 1
    60   35   56 1
##########                 Name:                 1563
##########          Protonation:                   86
##########               SMILES:   c1cc(nc2c1cc(cc2)c3c4c(ncnc4n(n3)CC5CC[NH2+]CC5)N)OCC(F)(F)F
##########            Long Name:   yl)-3-[2-(2,2,2-trifluoroethoxy)-6-quinolyl]pyrazolo[3,4-d]pyrimidin-4-amine
##########          FlexRecCode: 1
##########               Number:                   66
##########   Ligand Source File: /raid1/people/rgc/Examples/tdt/part3/ligand22set/build/ligand22set-0000001.db2.g
##########           GlobalRank: 6
##########                 Rank:                    2
##########               Setnum:                   40
##########             Matchnum:                29775
##########                Cloud:                    1
##########        Electrostatic:           -26.717609
##########        Van der Waals:           -32.873989
##########  Ligand Polar Desolv:            17.769415
########## Ligand Apolar Desolv:            -3.551738
##########      Internal Energy:             0.000000
##########      Receptor Energy: 0.0
########## Receptor Desolvation:             0.000000
########## Receptor Hydrophobic:             0.000000
##########         Total Energy: -45.37
##########        Ligand Charge:             1.000000
##########            Arbitrary:    +999.9990
##########     heavy atom count:   33
##########           pose count:   10
##########        Ligand Energy:             0.000000
# num electro vdwattr vdwrepu polsolv apolsol rdesolv rhydroe totalscore fullpol fullapo
#   1   -2.69   -2.31    0.37   -5.36    0.51    0.00    0.00      -9.48   -8.45    0.81
#   2    1.71   -1.97    0.46    2.27   -1.28    0.00    0.00       1.19    3.81   -2.15
#   3   -1.20   -1.66    0.39   -1.41   -0.22    0.00    0.00      -4.10   -2.84   -0.44
#   4    1.65   -2.19    0.94    0.70   -0.36    0.00    0.00       0.73    1.47   -0.75
#   5   -1.49   -3.35    3.21   -1.12    0.52    0.00    0.00      -2.23   -2.37    1.09
#   6   -0.05   -1.80    0.36   -1.81    0.44    0.00    0.00      -2.87   -4.06    0.98
#   7   -0.62   -1.45    0.36    0.76   -0.18    0.00    0.00      -1.14    1.77   -0.43
#   8    1.15   -0.64    0.04   -0.76   -0.05    0.00    0.00      -0.26   -2.10   -0.15
#   9    1.78   -0.71    0.04   -1.50   -0.10    0.00    0.00      -0.48   -3.45   -0.22
#  10    0.13   -1.13    0.20    0.36   -0.21    0.00    0.00      -0.65    0.81   -0.47
#  11   11.42   -2.75    2.30   -7.25    0.39    0.00    0.00       4.11  -16.39    0.89
#  12   -7.36   -0.09    0.02    7.55    0.25    0.00    0.00       0.37   16.94    0.56
#  13  -13.89   -0.14    0.03    9.38    0.30    0.00    0.00      -4.33   18.09    0.57
#  14    0.07   -1.03    0.27    0.22   -0.16    0.00    0.00      -0.63    0.64   -0.47
#  15    1.31   -0.54    0.03   -1.05   -0.06    0.00    0.00      -0.31   -3.60   -0.22
#  16    0.21   -1.59    0.31    1.20   -0.95    0.00    0.00      -0.82    2.78   -2.20
#  17    0.91   -1.59    0.28   -2.01    0.92    0.00    0.00      -1.51   -4.59    2.09
#  18   -1.17   -2.77    1.71    1.42   -1.57    0.00    0.00      -2.38    2.86   -3.16
#  19   -1.16   -3.17    1.18   -2.47    1.20    0.00    0.00      -4.42   -4.27    2.08
#  20   -0.58   -2.22    0.75   -0.21   -0.21    0.00    0.00      -2.47   -0.38   -0.38
#  21   -0.90   -2.68    1.06   -0.24   -0.18    0.00    0.00      -2.94   -0.41   -0.31
#  22   -1.89   -2.39    0.52   -0.88   -0.26    0.00    0.00      -4.89   -1.34   -0.40
#  23   -0.21   -3.99    3.52    0.08   -0.31    0.00    0.00      -0.90    0.12   -0.46
#  24   -1.56   -3.46    1.85   -1.12   -0.30    0.00    0.00      -4.59   -1.71   -0.46
#  25    4.07   -2.39    0.75    1.18   -0.43    0.00    0.00       3.17    1.80   -0.66
#  26   -2.71   -1.81    0.29   -0.96    0.56    0.00    0.00      -4.63   -1.48    0.86
#  27    0.23   -1.89    1.03    0.16   -0.07    0.00    0.00      -0.54    0.24   -0.10
#  28    3.20   -1.39    0.22    1.12   -0.05    0.00    0.00       3.11    1.73   -0.07
#  29   -0.98   -1.03    0.13   -0.29   -0.30    0.00    0.00      -2.47   -0.46   -0.48
#  30   -0.54   -2.43    1.40   -0.37   -0.30    0.00    0.00      -2.24   -0.60   -0.48
#  31   -1.61   -1.70    1.80   -0.26   -0.29    0.00    0.00      -2.06   -0.43   -0.48
#  32   -6.71   -2.88    1.60   -1.89    1.68    0.00    0.00      -8.20   -3.15    2.80
#  33    2.76   -2.63    0.83    0.57   -0.44    0.00    0.00       1.09    0.95   -0.73
#  34   -1.26   -3.64    1.81   -0.58   -0.27    0.00    0.00      -3.94   -0.97   -0.46
#  35   -0.90   -2.93    1.41   -0.28   -0.25    0.00    0.00      -2.95   -0.50   -0.45
#  36    0.39   -0.05    0.00    3.10    0.37    0.00    0.00       3.81    4.95    0.59
#  37    1.94   -0.03    0.00    2.20    0.17    0.00    0.00       4.27    4.73    0.36
#  38   -0.35   -0.76    0.27    0.58   -0.13    0.00    0.00      -0.39    1.23   -0.28
#  39   -0.51   -0.86    0.90    0.77   -0.10    0.00    0.00       0.20    2.17   -0.28
#  40   -1.03   -0.19    0.01    0.18   -0.05    0.00    0.00      -1.08    0.99   -0.28
#  41   -0.75   -0.23    0.03    0.67   -0.07    0.00    0.00      -0.35    2.72   -0.28
#  42   -1.41   -0.32    0.05    0.12   -0.07    0.00    0.00      -1.64    0.37   -0.24
#  43   -3.43   -0.49    0.16    2.05   -0.11    0.00    0.00      -1.82    5.00   -0.28
#  44   -3.38   -0.35    0.09    1.14   -0.09    0.00    0.00      -2.60    3.58   -0.28
#  45   -1.64   -0.39    0.11    1.92   -0.09    0.00    0.00      -0.09    6.01   -0.28
#  46   -2.35   -0.27    0.08    0.78   -0.06    0.00    0.00      -1.82    3.88   -0.28
#  47   -0.87   -0.13    0.01    0.22   -0.03    0.00    0.00      -0.81    1.93   -0.28
#  48   -0.67   -0.21    0.03    0.64   -0.05    0.00    0.00      -0.26    3.36   -0.28
#  49   -2.00   -1.34    5.58    1.14   -0.12    0.00    0.00       3.27    2.75   -0.28
#  50    1.57   -1.15    2.59    1.23   -0.13    0.00    0.00       4.11    2.33   -0.24
#  51    1.14   -1.38    1.72    2.21   -0.18    0.00    0.00       3.52    3.52   -0.28
#  52    0.97   -1.05    0.66    1.08   -0.17    0.00    0.00       1.49    1.82   -0.28
#  53    1.05   -1.27    2.61    0.55   -0.15    0.00    0.00       2.78    1.02   -0.28
#  54    0.99   -0.76    0.62    0.48   -0.14    0.00    0.00       1.20    0.94   -0.28
#  55    1.35   -1.61    3.33    0.77   -0.18    0.00    0.00       3.66    1.23   -0.28
#  56    1.15   -0.82    0.84    0.79   -0.14    0.00    0.00       1.82    1.61   -0.28

@<TRIPOS>MOLECULE
             1563        86
   56    60     0     0     0



@<TRIPOS>ATOM
      1 N1         20.0667    12.9944    63.6617 N.pl3      1          -0.8259
      2 C1         21.2882    13.6278    63.5375 C.ar       1           0.5216
      3 C2         21.3890    15.0248    63.6454 C.ar       1          -0.3262
      4 C3         20.4426    16.1150    63.8806 C.2        1           0.1849
      5 N2         21.1268    17.2348    63.8782 N.2        1          -0.2418
      6 N3         22.4810    16.9640    63.6551 N.pl3      1          -0.3864
      7 C4         23.5448    17.9690    63.5867 C.3        1           0.1483
      8 C5         23.7058    18.4435    62.1412 C.3        1          -0.1198
      9 C6         22.3263    18.5800    61.4902 C.3        1          -0.1427
     10 C7         22.4979    18.9776    60.0226 C.3        1          -0.0058
     11 N4         23.2723    17.9475    59.3201 N.4        1          -0.5055
     12 H1         22.8095    17.0562    59.4165 H          1           0.4285
     13 H2         23.3389    18.1866    58.3421 H          1           0.4326
     14 C8         24.6212    17.8614    59.8926 C.3        1          -0.0047
     15 C9         24.5312    17.4206    61.3552 C.3        1          -0.1408
     16 C10        22.6571    15.6200    63.5111 C.ar       1           0.3787
     17 N5         23.7109    14.8349    63.2873 N.ar       1          -0.5781
     18 C11        23.5686    13.5312    63.1941 C.ar       1           0.3943
     19 N6         22.3983    12.9301    63.3184 N.ar       1          -0.5980
     20 C12        18.9806    15.9800    64.0832 C.ar       1          -0.0387
     21 C13        18.4756    15.8184    65.3617 C.ar       1          -0.0647
     22 C14        17.0921    15.6915    65.5448 C.ar       1          -0.1308
     23 C15        16.5386    15.5259    66.8315 C.ar       1          -0.0199
     24 C16        15.1853    15.4086    66.9417 C.ar       1          -0.1650
     25 C17        14.3854    15.4543    65.7932 C.ar       1           0.3670
     26 O1         13.0406    15.3367    65.9187 O.3        1          -0.2875
     27 C18        12.2371    16.0068    64.9455 C.3        1           0.0260
     28 C19        11.3759    14.9833    64.2028 C.3        1           0.4633
     29 F1         10.5478    14.3209    65.1152 F          1          -0.1730
     30 F2         10.5894    15.6393    63.2500 F          1          -0.1673
     31 F3         12.2034    14.0535    63.5640 F          1          -0.1723
     32 N7         14.9068    15.6089    64.5955 N.ar       1          -0.5399
     33 C20        16.2280    15.7296    64.4223 C.ar       1           0.1833
     34 C21        16.7733    15.8947    63.1367 C.ar       1          -0.0930
     35 C22        18.1163    16.0224    62.9777 C.ar       1          -0.0633
     36 H3         20.0119    12.0286    63.5910 H          1           0.4148
     37 H4         19.2646    13.5152    63.8234 H          1           0.4141
     38 H5         23.2850    18.8168    64.2206 H          1           0.1086
     39 H6         24.4812    17.5308    63.9316 H          1           0.1019
     40 H7         24.2130    19.4083    62.1285 H          1           0.0962
     41 H8         21.7999    17.6274    61.5501 H          1           0.0937
     42 H9         21.7527    19.3470    62.0105 H          1           0.1119
     43 H10        21.5176    19.0758    59.5562 H          1           0.1343
     44 H11        23.0242    19.9304    59.9639 H          1           0.1286
     45 H12        25.2083    17.1353    59.3303 H          1           0.1370
     46 H13        25.1021    18.8379    59.8367 H          1           0.1310
     47 H14        25.5336    17.3590    61.7791 H          1           0.1184
     48 H15        24.0505    16.4440    61.4122 H          1           0.0941
     49 H16        24.4446    12.9263    63.0122 H          1           0.2082
     50 H17        19.1423    15.7901    66.2110 H          1           0.1404
     51 H18        17.1708    15.4926    67.7066 H          1           0.1553
     52 H19        14.7306    15.2804    67.9129 H          1           0.1557
     53 H20        11.5924    16.7312    65.4430 H          1           0.1173
     54 H21        12.8824    16.5228    64.2346 H          1           0.1179
     55 H22        16.1230    15.9251    62.2750 H          1           0.1456
     56 H23        18.5253    16.1535    61.9867 H          1           0.1377
@<TRIPOS>BOND
     1    1    2 1
     2    1   36 1
     3    1   37 1
     4    2   19 ar
     5    2    3 ar
     6    3   16 ar
     7    3    4 1
     8    4    5 2
     9    4   20 1
    10    5    6 1
    11    6    7 1
    12    6   16 1
    13    7    8 1
    14    7   38 1
    15    7   39 1
    16    8   15 1
    17    8    9 1
    18    8   40 1
    19    9   10 1
    20    9   41 1
    21    9   42 1
    22   10   11 1
    23   10   43 1
    24   10   44 1
    25   11   12 1
    26   11   13 1
    27   11   14 1
    28   14   15 1
    29   14   45 1
    30   14   46 1
    31   15   47 1
    32   15   48 1
    33   16   17 ar
    34   17   18 ar
    35   18   19 ar
    36   18   49 1
    37   20   35 ar
    38   20   21 ar
    39   21   22 ar
    40   21   50 1
    41   22   33 ar
    42   22   23 ar
    43   23   24 ar
    44   23   51 1
    45   24   25 ar
    46   24   52 1
    47   25   26 1
    48   25   32 ar
    49   26   27 1
    50   27   28 1
    51   27   53 1
    52   27   54 1
    53   28   29 1
    54   28   30 1
    55   28   31 1
    56   32   33 ar
    57   33   34 ar
    58   34   35 ar
    59   34   55 1
    60   35   56 1
##########                 Name:                 1563
##########          Protonation:                   86
##########               SMILES:   c1cc(nc2c1cc(cc2)c3c4c(ncnc4n(n3)CC5CC[NH2+]CC5)N)OCC(F)(F)F
##########            Long Name:   yl)-3-[2-(2,2,2-trifluoroethoxy)-6-quinolyl]pyrazolo[3,4-d]pyrimidin-4-amine
##########          FlexRecCode: 1
##########               Number:                   71
##########   Ligand Source File: /raid1/people/rgc/Examples/tdt/part3/ligand22set/build/ligand22set-0000001.db2.g
##########           GlobalRank: 6
##########                 Rank:                    4
##########               Setnum:                  140
##########             Matchnum:                 3493
##########                Cloud:                    1
##########        Electrostatic:           -29.992456
##########        Van der Waals:           -26.007425
##########  Ligand Polar Desolv:            15.062537
########## Ligand Apolar Desolv:            -4.284160
##########      Internal Energy:             0.000000
##########      Receptor Energy: 0.0
########## Receptor Desolvation:             0.000000
########## Receptor Hydrophobic:             0.000000
##########         Total Energy: -45.22
##########        Ligand Charge:             1.000000
##########            Arbitrary:    +999.9990
##########     heavy atom count:   33
##########           pose count:   10
##########        Ligand Energy:             0.000000
# num electro vdwattr vdwrepu polsolv apolsol rdesolv rhydroe totalscore fullpol fullapo
#   1   -0.72   -4.99    5.98   -5.33    0.51    0.00    0.00      -4.55   -8.45    0.81
#   2    1.76   -2.44    0.59    2.42   -1.37    0.00    0.00       0.96    3.81   -2.15
#   3   -1.67   -1.63    0.25   -1.67   -0.26    0.00    0.00      -4.98   -2.84   -0.44
#   4    1.87   -1.71    0.28    0.77   -0.39    0.00    0.00       0.81    1.47   -0.75
#   5   -2.32   -2.15    0.86   -1.10    0.51    0.00    0.00      -4.21   -2.37    1.09
#   6   -0.79   -1.51    0.28   -1.72    0.41    0.00    0.00      -3.33   -4.06    0.98
#   7   -0.44   -0.80    0.07    0.73   -0.18    0.00    0.00      -0.62    1.77   -0.43
#   8    1.08   -0.69    0.06   -0.88   -0.06    0.00    0.00      -0.50   -2.10   -0.15
#   9    1.92   -0.57    0.03   -1.18   -0.08    0.00    0.00       0.13   -3.45   -0.22
#  10    0.14   -1.24    0.51    0.31   -0.18    0.00    0.00      -0.45    0.81   -0.47
#  11   12.44   -1.56    0.43   -6.64    0.36    0.00    0.00       5.03  -16.39    0.89
#  12   -8.99   -0.03    0.00    4.81    0.16    0.00    0.00      -4.04   16.94    0.56
#  13  -13.48   -0.06    0.00    7.07    0.22    0.00    0.00      -6.25   18.09    0.57
#  14    0.09   -1.33    0.30    0.31   -0.23    0.00    0.00      -0.86    0.64   -0.47
#  15    1.44   -1.27    0.34   -1.62   -0.10    0.00    0.00      -1.20   -3.60   -0.22
#  16    0.97   -1.70    0.48    1.38   -1.09    0.00    0.00       0.04    2.78   -2.20
#  17   -0.46   -2.05    0.47   -2.37    1.08    0.00    0.00      -3.33   -4.59    2.09
#  18    1.48   -3.99    2.32    1.70   -1.88    0.00    0.00      -0.37    2.86   -3.16
#  19   -3.13   -4.28    2.04   -2.82    1.37    0.00    0.00      -6.81   -4.27    2.08
#  20   -0.54   -2.09    0.42   -0.22   -0.22    0.00    0.00      -2.66   -0.38   -0.38
#  21   -0.79   -2.12    0.42   -0.26   -0.19    0.00    0.00      -2.95   -0.41   -0.31
#  22   -1.64   -2.65    1.11   -0.86   -0.26    0.00    0.00      -4.29   -1.34   -0.40
#  23   -0.16   -2.93    0.91    0.08   -0.29    0.00    0.00      -2.40    0.12   -0.46
#  24   -1.42   -2.79    0.84   -1.11   -0.30    0.00    0.00      -4.78   -1.71   -0.46
#  25    3.71   -2.26    0.76    1.17   -0.43    0.00    0.00       2.95    1.80   -0.66
#  26   -2.44   -1.84    0.35   -0.99    0.57    0.00    0.00      -4.34   -1.48    0.86
#  27    0.18   -1.54    0.35    0.16   -0.06    0.00    0.00      -0.92    0.24   -0.10
#  28    2.25   -1.39    0.33    1.09   -0.04    0.00    0.00       2.23    1.73   -0.07
#  29   -0.80   -1.47    0.60   -0.29   -0.30    0.00    0.00      -2.26   -0.46   -0.48
#  30   -0.17   -2.05    1.84   -0.37   -0.30    0.00    0.00      -1.05   -0.60   -0.48
#  31   -1.12   -1.46    0.40   -0.27   -0.30    0.00    0.00      -2.76   -0.43   -0.48
#  32   -5.64   -2.97    1.28   -1.89    1.68    0.00    0.00      -7.54   -3.15    2.80
#  33    2.33   -3.21    1.70    0.57   -0.43    0.00    0.00       0.94    0.95   -0.73
#  34   -0.93   -5.46    5.18   -0.60   -0.28    0.00    0.00      -2.08   -0.97   -0.46
#  35   -0.82   -4.32    3.97   -0.30   -0.27    0.00    0.00      -1.73   -0.50   -0.45
#  36   -3.12   -0.17    0.04    3.20    0.38    0.00    0.00       0.33    4.95    0.59
#  37    2.00   -0.11    0.03    2.33    0.18    0.00    0.00       4.42    4.73    0.36
#  38   -0.22   -0.37    0.05    0.45   -0.10    0.00    0.00      -0.18    1.23   -0.28
#  39   -0.41   -0.19    0.01    0.44   -0.06    0.00    0.00      -0.20    2.17   -0.28
#  40   -0.94   -0.33    0.11    0.29   -0.08    0.00    0.00      -0.95    0.99   -0.28
#  41   -1.02   -0.15    0.01    0.37   -0.04    0.00    0.00      -0.83    2.72   -0.28
#  42   -1.32   -0.17    0.01    0.07   -0.05    0.00    0.00      -1.46    0.37   -0.24
#  43   -3.86   -0.71    1.31    1.33   -0.07    0.00    0.00      -2.00    5.00   -0.28
#  44   -3.69   -0.58    0.25    1.49   -0.12    0.00    0.00      -2.66    3.58   -0.28
#  45   -2.70   -0.78    0.67    2.76   -0.13    0.00    0.00      -0.18    6.01   -0.28
#  46   -2.73   -0.35    0.05    1.55   -0.11    0.00    0.00      -1.59    3.88   -0.28
#  47   -0.53   -0.90    2.16    0.72   -0.10    0.00    0.00       1.34    1.93   -0.28
#  48   -0.92   -0.56    0.18    1.35   -0.11    0.00    0.00      -0.06    3.36   -0.28
#  49    0.50   -1.78    3.36    1.56   -0.16    0.00    0.00       3.48    2.75   -0.28
#  50    1.24   -0.41    0.05    1.17   -0.12    0.00    0.00       1.93    2.33   -0.24
#  51    0.45   -0.66    0.13    2.11   -0.17    0.00    0.00       1.87    3.52   -0.28
#  52    1.09   -0.88    0.78    1.05   -0.16    0.00    0.00       1.88    1.82   -0.28
#  53    0.67   -1.01    1.19    0.56   -0.15    0.00    0.00       1.26    1.02   -0.28
#  54    1.07   -0.48    0.09    0.44   -0.13    0.00    0.00       0.99    0.94   -0.28
#  55    0.12   -2.77    7.97    0.83   -0.19    0.00    0.00       5.96    1.23   -0.28
#  56    1.14   -1.90    9.61    0.90   -0.16    0.00    0.00       9.59    1.61   -0.28

@<TRIPOS>MOLECULE
             1563        86
   56    60     0     0     0



@<TRIPOS>ATOM
      1 N1         18.9105    12.5519    64.3085 N.pl3      1          -0.8259
      2 C1         20.1864    13.0170    64.0547 C.ar       1           0.5216
      3 C2         20.4128    14.3703    63.7543 C.ar       1          -0.3262
      4 C3         19.5667    15.5563    63.6225 C.2        1           0.1849
      5 N2         20.3503    16.5649    63.3213 N.2        1          -0.2418
      6 N3         21.6771    16.1289    63.2421 N.pl3      1          -0.3864
      7 C4         22.8292    16.9772    62.9267 C.3        1           0.1483
      8 C5         22.4877    17.8803    61.7399 C.3        1          -0.1198
      9 C6         23.7801    18.3960    61.1002 C.3        1          -0.1427
     10 C7         23.4311    19.3608    59.9649 C.3        1          -0.0058
     11 N4         22.6621    20.4917    60.4980 N.4        1          -0.5055
     12 H1         23.1932    20.9448    61.2264 H          1           0.4285
     13 H2         22.4787    21.1515    59.7569 H          1           0.4326
     14 C8         21.3886    20.0127    61.0487 C.3        1          -0.0047
     15 C9         21.6590    19.0730    62.2257 C.3        1          -0.1408
     16 C10        21.7318    14.7922    63.5037 C.ar       1           0.3787
     17 N5         22.7125    13.8913    63.5617 N.ar       1          -0.5781
     18 C11        22.4531    12.6344    63.8473 C.ar       1           0.3943
     19 N6         21.2312    12.1960    64.0939 N.ar       1          -0.5980
     20 C12        18.0957    15.6088    63.7961 C.ar       1          -0.0387
     21 C13        17.5334    15.2529    65.0097 C.ar       1          -0.0647
     22 C14        16.1418    15.3053    65.1658 C.ar       1          -0.1308
     23 C15        15.5307    14.9512    66.3867 C.ar       1          -0.0199
     24 C16        14.1726    15.0241    66.4737 C.ar       1          -0.1650
     25 C17        13.4242    15.4425    65.3665 C.ar       1           0.3670
     26 O1         12.0740    15.5104    65.4684 O.3        1          -0.2875
     27 C18        11.3213    15.2859    64.2746 C.3        1           0.0260
     28 C19        10.3979    14.0821    64.4728 C.3        1           0.4633
     29 F1          9.5233    14.3350    65.5349 F          1          -0.1730
     30 F2          9.6611    13.8622    63.3041 F          1          -0.1673
     31 F3         11.1651    12.9481    64.7605 F          1          -0.1723
     32 N7         13.9992    15.7717    64.2302 N.ar       1          -0.5399
     33 C20        15.3280    15.7208    64.0827 C.ar       1           0.1833
     34 C21        15.9309    16.0753    62.8627 C.ar       1          -0.0930
     35 C22        17.2819    16.0247    62.7305 C.ar       1          -0.0633
     36 H3         18.7687    11.6160    64.5206 H          1           0.4148
     37 H4         18.1570    13.1621    64.2786 H          1           0.4141
     38 H5         23.0753    17.5923    63.7923 H          1           0.1086
     39 H6         23.6834    16.3500    62.6720 H          1           0.1019
     40 H7         21.9160    17.3148    61.0041 H          1           0.0962
     41 H8         24.3748    18.9169    61.8506 H          1           0.0937
     42 H9         24.3494    17.5562    60.7021 H          1           0.1119
     43 H10        24.3489    19.7297    59.5072 H          1           0.1343
     44 H11        22.8365    18.8389    59.2150 H          1           0.1286
     45 H12        20.7987    20.8627    61.3911 H          1           0.1370
     46 H13        20.8376    19.4768    60.2757 H          1           0.1310
     47 H14        20.7123    18.7170    62.6321 H          1           0.1184
     48 H15        22.2097    19.6079    62.9995 H          1           0.0941
     49 H16        23.2728    11.9323    63.8855 H          1           0.2082
     50 H17        18.1618    14.9371    65.8294 H          1           0.1404
     51 H18        16.1235    14.6303    67.2306 H          1           0.1553
     52 H19        13.6744    14.7594    67.3947 H          1           0.1557
     53 H20        10.7235    16.1692    64.0504 H          1           0.1173
     54 H21        12.0027    15.0887    63.4471 H          1           0.1179
     55 H22        15.3192    16.3933    62.0313 H          1           0.1456
     56 H23        17.7360    16.3036    61.7910 H          1           0.1377
@<TRIPOS>BOND
     1    1    2 1
     2    1   36 1
     3    1   37 1
     4    2   19 ar
     5    2    3 ar
     6    3   16 ar
     7    3    4 1
     8    4    5 2
     9    4   20 1
    10    5    6 1
    11    6    7 1
    12    6   16 1
    13    7    8 1
    14    7   38 1
    15    7   39 1
    16    8   15 1
    17    8    9 1
    18    8   40 1
    19    9   10 1
    20    9   41 1
    21    9   42 1
    22   10   11 1
    23   10   43 1
    24   10   44 1
    25   11   12 1
    26   11   13 1
    27   11   14 1
    28   14   15 1
    29   14   45 1
    30   14   46 1
    31   15   47 1
    32   15   48 1
    33   16   17 ar
    34   17   18 ar
    35   18   19 ar
    36   18   49 1
    37   20   35 ar
    38   20   21 ar
    39   21   22 ar
    40   21   50 1
    41   22   33 ar
    42   22   23 ar
    43   23   24 ar
    44   23   51 1
    45   24   25 ar
    46   24   52 1
    47   25   26 1
    48   25   32 ar
    49   26   27 1
    50   27   28 1
    51   27   53 1
    52   27   54 1
    53   28   29 1
    54   28   30 1
    55   28   31 1
    56   32   33 ar
    57   33   34 ar
    58   34   35 ar
    59   34   55 1
    60   35   56 1
##########                 Name:                 1563
##########          Protonation:                   86
##########               SMILES:   c1cc(nc2c1cc(cc2)c3c4c(ncnc4n(n3)CC5CC[NH2+]CC5)N)OCC(F)(F)F
##########            Long Name:   yl)-3-[2-(2,2,2-trifluoroethoxy)-6-quinolyl]pyrazolo[3,4-d]pyrimidin-4-amine
##########          FlexRecCode: 1
##########               Number:                   71
##########   Ligand Source File: /raid1/people/rgc/Examples/tdt/part3/ligand22set/build/ligand22set-0000001.db2.g
##########           GlobalRank: 6
##########                 Rank:                    5
##########               Setnum:                  140
##########             Matchnum:                29556
##########                Cloud:                    1
##########        Electrostatic:           -27.153387
##########        Van der Waals:           -26.902124
##########  Ligand Polar Desolv:            13.000412
########## Ligand Apolar Desolv:            -4.161437
##########      Internal Energy:             0.000000
##########      Receptor Energy: 0.0
########## Receptor Desolvation:             0.000000
########## Receptor Hydrophobic:             0.000000
##########         Total Energy: -45.22
##########        Ligand Charge:             1.000000
##########            Arbitrary:    +999.9990
##########     heavy atom count:   33
##########           pose count:   10
##########        Ligand Energy:             0.000000
# num electro vdwattr vdwrepu polsolv apolsol rdesolv rhydroe totalscore fullpol fullapo
#   1    0.01   -4.54    3.41   -5.45    0.52    0.00    0.00      -6.06   -8.45    0.81
#   2    2.06   -3.06    1.74    2.44   -1.37    0.00    0.00       1.80    3.81   -2.15
#   3   -1.54   -1.85    0.39   -1.66   -0.26    0.00    0.00      -4.92   -2.84   -0.44
#   4    1.55   -1.81    0.45    0.75   -0.38    0.00    0.00       0.57    1.47   -0.75
#   5   -1.68   -2.13    0.77   -1.09    0.50    0.00    0.00      -3.63   -2.37    1.09
#   6   -0.68   -1.68    0.33   -1.77    0.43    0.00    0.00      -3.37   -4.06    0.98
#   7   -0.37   -1.01    0.15    0.72   -0.18    0.00    0.00      -0.68    1.77   -0.43
#   8    0.91   -0.65    0.04   -0.82   -0.06    0.00    0.00      -0.58   -2.10   -0.15
#   9    1.55   -0.52    0.02   -1.05   -0.07    0.00    0.00      -0.06   -3.45   -0.22
#  10    0.11   -0.80    0.16    0.27   -0.16    0.00    0.00      -0.41    0.81   -0.47
#  11   10.49   -1.19    0.23   -6.19    0.34    0.00    0.00       3.68  -16.39    0.89
#  12   -7.15   -0.03    0.00    4.06    0.13    0.00    0.00      -2.98   16.94    0.56
#  13  -11.41   -0.03    0.00    6.10    0.19    0.00    0.00      -5.15   18.09    0.57
#  14    0.08   -1.24    0.31    0.28   -0.21    0.00    0.00      -0.77    0.64   -0.47
#  15    1.21   -1.18    0.21   -1.57   -0.10    0.00    0.00      -1.42   -3.60   -0.22
#  16    0.92   -1.94    0.55    1.38   -1.09    0.00    0.00      -0.19    2.78   -2.20
#  17   -0.43   -2.78    1.69   -2.35    1.07    0.00    0.00      -2.80   -4.59    2.09
#  18    1.24   -5.56    8.33    1.66   -1.83    0.00    0.00       3.84    2.86   -3.16
#  19   -4.07   -6.02    5.89   -2.75    1.34    0.00    0.00      -5.61   -4.27    2.08
#  20   -0.49   -1.84    0.29   -0.22   -0.22    0.00    0.00      -2.48   -0.38   -0.38
#  21   -0.68   -2.13    0.36   -0.26   -0.19    0.00    0.00      -2.91   -0.41   -0.31
#  22   -1.46   -2.49    0.72   -0.88   -0.26    0.00    0.00      -4.37   -1.34   -0.40
#  23   -0.12   -3.20    0.93    0.08   -0.30    0.00    0.00      -2.61    0.12   -0.46
#  24   -1.17   -3.16    0.99   -1.10   -0.30    0.00    0.00      -4.75   -1.71   -0.46
#  25    3.74   -2.50    1.24    1.17   -0.43    0.00    0.00       3.22    1.80   -0.66
#  26   -2.57   -1.77    0.28   -0.96    0.56    0.00    0.00      -4.47   -1.48    0.86
#  27    0.20   -1.37    0.26    0.15   -0.06    0.00    0.00      -0.81    0.24   -0.10
#  28    2.81   -1.34    0.23    1.11   -0.04    0.00    0.00       2.76    1.73   -0.07
#  29   -0.93   -1.43    0.42   -0.29   -0.30    0.00    0.00      -2.53   -0.46   -0.48
#  30   -0.61   -1.23    0.34   -0.39   -0.31    0.00    0.00      -2.20   -0.60   -0.48
#  31   -1.22   -2.17    1.34   -0.26   -0.29    0.00    0.00      -2.60   -0.43   -0.48
#  32   -6.26   -2.96    1.93   -1.89    1.68    0.00    0.00      -7.51   -3.15    2.80
#  33    2.50   -2.93    1.51    0.56   -0.43    0.00    0.00       1.21    0.95   -0.73
#  34   -1.22   -3.80    1.90   -0.58   -0.28    0.00    0.00      -3.98   -0.97   -0.46
#  35   -0.88   -2.95    1.29   -0.29   -0.26    0.00    0.00      -3.09   -0.50   -0.45
#  36   -3.88   -0.19    0.06    3.21    0.38    0.00    0.00      -0.42    4.95    0.59
#  37    1.17   -0.06    0.00    2.41    0.18    0.00    0.00       3.71    4.73    0.36
#  38   -0.17   -0.61    0.22    0.50   -0.11    0.00    0.00      -0.17    1.23   -0.28
#  39   -0.35   -0.24    0.03    0.49   -0.06    0.00    0.00      -0.14    2.17   -0.28
#  40   -0.80   -0.25    0.06    0.21   -0.06    0.00    0.00      -0.84    0.99   -0.28
#  41   -0.84   -0.21    0.03    0.48   -0.05    0.00    0.00      -0.59    2.72   -0.28
#  42   -1.04   -0.13    0.00    0.05   -0.03    0.00    0.00      -1.15    0.37   -0.24
#  43   -2.72   -0.29    0.13    0.90   -0.05    0.00    0.00      -2.03    5.00   -0.28
#  44   -3.14   -0.40    0.12    1.17   -0.09    0.00    0.00      -2.33    3.58   -0.28
#  45   -2.68   -0.92    1.04    2.59   -0.12    0.00    0.00      -0.09    6.01   -0.28
#  46   -2.50   -0.27    0.02    1.33   -0.10    0.00    0.00      -1.52    3.88   -0.28
#  47   -0.36   -0.55    0.34    0.72   -0.10    0.00    0.00       0.06    1.93   -0.28
#  48   -0.71   -0.58    0.16    1.43   -0.12    0.00    0.00       0.17    3.36   -0.28
#  49    0.20   -2.49   16.14    1.57   -0.16    0.00    0.00      15.26    2.75   -0.28
#  50    1.07   -0.55    0.17    1.22   -0.13    0.00    0.00       1.78    2.33   -0.24
#  51    0.11   -0.81    0.21    2.20   -0.18    0.00    0.00       1.54    3.52   -0.28
#  52    0.75   -1.00    0.72    1.09   -0.17    0.00    0.00       1.39    1.82   -0.28
#  53    0.81   -0.66    0.38    0.52   -0.14    0.00    0.00       0.90    1.02   -0.28
#  54    1.17   -0.51    0.23    0.43   -0.13    0.00    0.00       1.19    0.94   -0.28
#  55    0.97   -1.52    1.89    0.78   -0.18    0.00    0.00       1.94    1.23   -0.28
#  56    1.34   -0.82    0.79    0.80   -0.14    0.00    0.00       1.97    1.61   -0.28

@<TRIPOS>MOLECULE
             1563        86
   56    60     0     0     0



@<TRIPOS>ATOM
      1 N1         19.4588    12.4215    64.6856 N.pl3      1          -0.8259
      2 C1         20.7344    12.8988    64.4538 C.ar       1           0.5216
      3 C2         20.9525    14.2535    64.1533 C.ar       1          -0.3262
      4 C3         20.0969    15.4303    64.0020 C.2        1           0.1849
      5 N2         20.8756    16.4460    63.7121 N.2        1          -0.2418
      6 N3         22.2080    16.0234    63.6588 N.pl3      1          -0.3864
      7 C4         23.3571    16.8825    63.3620 C.3        1           0.1483
      8 C5         23.0284    17.7784    62.1662 C.3        1          -0.1198
      9 C6         24.3270    18.3054    61.5488 C.3        1          -0.1427
     10 C7         23.9894    19.2631    60.4042 C.3        1          -0.0058
     11 N4         23.1991    20.3877    60.9193 N.4        1          -0.5055
     12 H1         23.7120    20.8484    61.6559 H          1           0.4285
     13 H2         23.0227    21.0433    60.1728 H          1           0.4326
     14 C8         21.9206    19.8973    61.4479 C.3        1          -0.0047
     15 C9         22.1788    18.9641    62.6328 C.3        1          -0.1408
     16 C10        22.2715    14.6881    63.9257 C.ar       1           0.3787
     17 N5         23.2601    13.7975    64.0048 N.ar       1          -0.5781
     18 C11        23.0083    12.5389    64.2896 C.ar       1           0.3943
     19 N6         21.7865    12.0887    64.5150 N.ar       1          -0.5980
     20 C12        18.6225    15.4683    64.1483 C.ar       1          -0.0387
     21 C13        18.0415    15.1104    65.3525 C.ar       1          -0.0647
     22 C14        16.6468    15.1489    65.4827 C.ar       1          -0.1308
     23 C15        16.0168    14.7923    66.6933 C.ar       1          -0.0199
     24 C16        14.6567    14.8516    66.7549 C.ar       1          -0.1650
     25 C17        13.9247    15.2589    65.6327 C.ar       1           0.3670
     26 O1         12.5722    15.3133    65.7094 O.3        1          -0.2875
     27 C18        11.8440    15.0774    64.5027 C.3        1           0.0260
     28 C19        10.9295    13.8648    64.6877 C.3        1           0.4633
     29 F1         10.0329    14.1120    65.7327 F          1          -0.1730
     30 F2         10.2167    13.6338    63.5063 F          1          -0.1673
     31 F3         11.7028    12.7396    64.9931 F          1          -0.1723
     32 N7         14.5172    15.5905    64.5061 N.ar       1          -0.5399
     33 C20        15.8490    15.5527    64.3833 C.ar       1           0.1833
     34 C21        16.4707    15.9098    63.1736 C.ar       1          -0.0930
     35 C22        17.8244    15.8726    63.0665 C.ar       1          -0.0633
     36 H3         19.3227    11.4848    64.8980 H          1           0.4148
     37 H4         18.6998    13.0238    64.6397 H          1           0.4141
     38 H5         23.5808    17.5027    64.2300 H          1           0.1086
     39 H6         24.2222    16.2633    63.1252 H          1           0.1019
     40 H7         22.4761    17.2048    61.4218 H          1           0.0962
     41 H8         24.9025    18.8346    62.3083 H          1           0.0937
     42 H9         24.9122    17.4702    61.1640 H          1           0.1119
     43 H10        24.9116    19.6400    59.9622 H          1           0.1343
     44 H11        23.4140    18.7329    59.6451 H          1           0.1286
     45 H12        21.3158    20.7423    61.7766 H          1           0.1370
     46 H13        21.3895    19.3534    60.6666 H          1           0.1310
     47 H14        21.2284    18.5996    63.0228 H          1           0.1184
     48 H15        22.7096    19.5070    63.4148 H          1           0.0941
     49 H16        23.8342    11.8453    64.3452 H          1           0.2082
     50 H17        18.6579    14.8035    66.1846 H          1           0.1404
     51 H18        16.5972    14.4801    67.5489 H          1           0.1553
     52 H19        14.1443    14.5846    67.6674 H          1           0.1557
     53 H20        11.2415    15.9538    64.2646 H          1           0.1173
     54 H21        12.5426    14.8847    63.6885 H          1           0.1179
     55 H22        15.8713    16.2189    62.3300 H          1           0.1456
     56 H23        18.2929    16.1532    62.1347 H          1           0.1377
@<TRIPOS>BOND
     1    1    2 1
     2    1   36 1
     3    1   37 1
     4    2   19 ar
     5    2    3 ar
     6    3   16 ar
     7    3    4 1
     8    4    5 2
     9    4   20 1
    10    5    6 1
    11    6    7 1
    12    6   16 1
    13    7    8 1
    14    7   38 1
    15    7   39 1
    16    8   15 1
    17    8    9 1
    18    8   40 1
    19    9   10 1
    20    9   41 1
    21    9   42 1
    22   10   11 1
    23   10   43 1
    24   10   44 1
    25   11   12 1
    26   11   13 1
    27   11   14 1
    28   14   15 1
    29   14   45 1
    30   14   46 1
    31   15   47 1
    32   15   48 1
    33   16   17 ar
    34   17   18 ar
    35   18   19 ar
    36   18   49 1
    37   20   35 ar
    38   20   21 ar
    39   21   22 ar
    40   21   50 1
    41   22   33 ar
    42   22   23 ar
    43   23   24 ar
    44   23   51 1
    45   24   25 ar
    46   24   52 1
    47   25   26 1
    48   25   32 ar
    49   26   27 1
    50   27   28 1
    51   27   53 1
    52   27   54 1
    53   28   29 1
    54   28   30 1
    55   28   31 1
    56   32   33 ar
    57   33   34 ar
    58   34   35 ar
    59   34   55 1
    60   35   56 1
##########                 Name:                 1563
##########          Protonation:                   86
##########               SMILES:   c1cc(nc2c1cc(cc2)c3c4c(ncnc4n(n3)CC5CC[NH2+]CC5)N)OCC(F)(F)F
##########            Long Name:   yl)-3-[2-(2,2,2-trifluoroethoxy)-6-quinolyl]pyrazolo[3,4-d]pyrimidin-4-amine
##########          FlexRecCode: 1
##########               Number:                   72
##########   Ligand Source File: /raid1/people/rgc/Examples/tdt/part3/ligand22set/build/ligand22set-0000001.db2.g
##########           GlobalRank: 6
##########                 Rank:                    1
##########               Setnum:                  218
##########             Matchnum:                31050
##########                Cloud:                    1
##########        Electrostatic:           -27.700052
##########        Van der Waals:           -26.256678
##########  Ligand Polar Desolv:            12.540348
########## Ligand Apolar Desolv:            -3.679254
##########      Internal Energy:             0.000000
##########      Receptor Energy: 0.0
########## Receptor Desolvation:             0.000000
########## Receptor Hydrophobic:             0.000000
##########         Total Energy: -45.1
##########        Ligand Charge:             1.000000
##########            Arbitrary:    +999.9990
##########     heavy atom count:   33
##########           pose count:   10
##########        Ligand Energy:             0.000000
# num electro vdwattr vdwrepu polsolv apolsol rdesolv rhydroe totalscore fullpol fullapo
#   1   -3.30   -2.39    0.58   -5.31    0.51    0.00    0.00      -9.92   -8.45    0.81
#   2    1.68   -2.17    0.61    2.13   -1.20    0.00    0.00       1.05    3.81   -2.15
#   3   -1.07   -1.98    0.65   -1.35   -0.21    0.00    0.00      -3.95   -2.84   -0.44
#   4    1.34   -2.66    1.91    0.69   -0.35    0.00    0.00       0.92    1.47   -0.75
#   5   -0.96   -3.46    3.58   -1.13    0.52    0.00    0.00      -1.45   -2.37    1.09
#   6    0.29   -2.13    0.48   -1.82    0.44    0.00    0.00      -2.74   -4.06    0.98
#   7   -0.74   -2.03    0.99    0.76   -0.18    0.00    0.00      -1.22    1.77   -0.43
#   8    1.16   -1.17    0.21   -0.83   -0.06    0.00    0.00      -0.68   -2.10   -0.15
#   9    1.81   -0.66    0.03   -1.43   -0.09    0.00    0.00      -0.33   -3.45   -0.22
#  10    0.13   -1.02    0.15    0.36   -0.21    0.00    0.00      -0.59    0.81   -0.47
#  11   13.03   -1.74    0.98   -6.13    0.33    0.00    0.00       6.47  -16.39    0.89
#  12  -11.75   -0.04    0.00    4.46    0.15    0.00    0.00      -7.18   16.94    0.56
#  13  -13.50   -0.07    0.00    7.00    0.22    0.00    0.00      -6.34   18.09    0.57
#  14    0.08   -0.90    0.23    0.21   -0.15    0.00    0.00      -0.53    0.64   -0.47
#  15    1.42   -0.92    0.17   -1.11   -0.07    0.00    0.00      -0.51   -3.60   -0.22
#  16    0.16   -2.09    0.73    1.21   -0.95    0.00    0.00      -0.94    2.78   -2.20
#  17    0.52   -2.36    1.15   -1.94    0.88    0.00    0.00      -1.75   -4.59    2.09
#  18   -0.58   -2.74    1.60    1.34   -1.48    0.00    0.00      -1.86    2.86   -3.16
#  19   -0.56   -3.22    1.66   -2.31    1.13    0.00    0.00      -3.31   -4.27    2.08
#  20   -0.53   -2.39    1.04   -0.20   -0.20    0.00    0.00      -2.27   -0.38   -0.38
#  21   -0.70   -2.67    1.45   -0.23   -0.18    0.00    0.00      -2.34   -0.41   -0.31
#  22   -1.43   -2.19    0.38   -0.86   -0.26    0.00    0.00      -4.36   -1.34   -0.40
#  23   -0.08   -3.30    1.11    0.08   -0.30    0.00    0.00      -2.49    0.12   -0.46
#  24   -0.50   -4.15    2.70   -1.10   -0.30    0.00    0.00      -3.35   -1.71   -0.46
#  25    3.37   -4.06    7.63    1.11   -0.41    0.00    0.00       7.63    1.80   -0.66
#  26   -2.46   -2.91    3.27   -0.92    0.53    0.00    0.00      -2.49   -1.48    0.86
#  27    0.24   -1.45    0.34    0.15   -0.06    0.00    0.00      -0.77    0.24   -0.10
#  28    4.58   -2.00    0.81    1.02   -0.04    0.00    0.00       4.37    1.73   -0.07
#  29   -1.44   -1.30    0.61   -0.29   -0.30    0.00    0.00      -2.72   -0.46   -0.48
#  30   -1.40   -3.25    2.61   -0.38   -0.30    0.00    0.00      -2.71   -0.60   -0.48
#  31   -2.51   -3.15    3.16   -0.25   -0.28    0.00    0.00      -3.02   -0.43   -0.48
#  32   -6.78   -3.20    2.50   -1.88    1.67    0.00    0.00      -7.68   -3.15    2.80
#  33    2.72   -2.46    0.69    0.56   -0.43    0.00    0.00       1.08    0.95   -0.73
#  34   -1.58   -3.28    1.48   -0.57   -0.27    0.00    0.00      -4.22   -0.97   -0.46
#  35   -1.22   -3.71    6.04   -0.27   -0.25    0.00    0.00       0.59   -0.50   -0.45
#  36    1.55   -0.05    0.00    2.96    0.35    0.00    0.00       4.81    4.95    0.59
#  37    1.87   -0.03    0.00    2.23    0.17    0.00    0.00       4.24    4.73    0.36
#  38   -0.28   -1.87    3.06    0.63   -0.14    0.00    0.00       1.39    1.23   -0.28
#  39   -0.79   -0.67    0.78    0.61   -0.08    0.00    0.00      -0.14    2.17   -0.28
#  40   -1.05   -0.83    0.59    0.41   -0.12    0.00    0.00      -1.01    0.99   -0.28
#  41   -1.17   -0.17    0.01    0.48   -0.05    0.00    0.00      -0.89    2.72   -0.28
#  42   -0.91   -0.21    0.01    0.09   -0.06    0.00    0.00      -1.07    0.37   -0.24
#  43   -3.45   -0.44    0.11    1.94   -0.11    0.00    0.00      -1.94    5.00   -0.28
#  44   -2.88   -0.38    0.07    1.30   -0.10    0.00    0.00      -2.00    3.58   -0.28
#  45   -1.66   -0.15    0.01    0.96   -0.04    0.00    0.00      -0.89    6.01   -0.28
#  46   -2.88   -0.91    2.45    1.17   -0.08    0.00    0.00      -0.26    3.88   -0.28
#  47   -0.52   -0.54    0.27    0.57   -0.08    0.00    0.00      -0.30    1.93   -0.28
#  48   -0.88   -0.14    0.01    0.46   -0.04    0.00    0.00      -0.59    3.36   -0.28
#  49   -0.69   -0.48    0.16    1.02   -0.10    0.00    0.00      -0.09    2.75   -0.28
#  50    1.19   -1.09    2.55    1.15   -0.12    0.00    0.00       3.67    2.33   -0.24
#  51    0.05   -0.92    0.33    2.22   -0.18    0.00    0.00       1.51    3.52   -0.28
#  52   -0.31   -1.15    0.82    1.17   -0.18    0.00    0.00       0.35    1.82   -0.28
#  53    0.96   -0.44    0.11    0.48   -0.13    0.00    0.00       0.97    1.02   -0.28
#  54    1.32   -0.54    0.27    0.49   -0.14    0.00    0.00       1.38    0.94   -0.28
#  55    1.53   -1.06    0.78    0.75   -0.17    0.00    0.00       1.83    1.23   -0.28
#  56    1.87   -0.94    1.99    0.70   -0.12    0.00    0.00       3.51    1.61   -0.28

@<TRIPOS>MOLECULE
             1563        86
   56    60     0     0     0



@<TRIPOS>ATOM
      1 N1         20.7905    13.1179    64.1824 N.pl3      1          -0.8259
      2 C1         21.9648    13.8338    64.0520 C.ar       1           0.5216
      3 C2         21.9506    15.2376    64.0040 C.ar       1          -0.3262
      4 C3         20.9100    16.2641    64.0613 C.2        1           0.1849
      5 N2         21.5046    17.4302    63.9671 N.2        1          -0.2418
      6 N3         22.8869    17.2508    63.8494 N.pl3      1          -0.3864
      7 C4         23.8723    18.3276    63.7232 C.3        1           0.1483
      8 C5         23.3748    19.3573    62.7069 C.3        1          -0.1198
      9 C6         22.7247    18.6358    61.5229 C.3        1          -0.1427
     10 C7         22.3012    19.6666    60.4744 C.3        1          -0.0058
     11 N4         23.4789    20.4096    60.0098 N.4        1          -0.5055
     12 H1         24.1618    19.7621    59.6460 H          1           0.4285
     13 H2         23.2043    21.0518    59.2816 H          1           0.4326
     14 C8         24.0655    21.1616    61.1256 C.3        1          -0.0047
     15 C9         24.5569    20.1882    62.1992 C.3        1          -0.1408
     16 C10        23.1749    15.9185    63.8703 C.ar       1           0.3787
     17 N5         24.2980    15.2046    63.7949 N.ar       1          -0.5781
     18 C11        24.2629    13.8912    63.8446 C.ar       1           0.3943
     19 N6         23.1370    13.2117    63.9742 N.ar       1          -0.5980
     20 C12        19.4530    16.0303    64.1995 C.ar       1          -0.0387
     21 C13        18.9651    15.3699    65.3137 C.ar       1          -0.0647
     22 C14        17.5862    15.1528    65.4369 C.ar       1          -0.1308
     23 C15        17.0500    14.4844    66.5573 C.ar       1          -0.0199
     24 C16        15.7003    14.3054    66.6170 C.ar       1          -0.1650
     25 C17        14.8870    14.7814    65.5811 C.ar       1           0.3670
     26 O1         13.5460    14.5962    65.6548 O.3        1          -0.2875
     27 C18        12.7200    15.5777    65.0252 C.3        1           0.0260
     28 C19        12.4622    15.1715    63.5728 C.3        1           0.4633
     29 F1         11.8170    13.9305    63.5431 F          1          -0.1730
     30 F2         11.6536    16.1324    62.9564 F          1          -0.1673
     31 F3         13.6803    15.0801    62.8908 F          1          -0.1723
     32 N7         15.3923    15.4041    64.5384 N.ar       1          -0.5399
     33 C20        16.7092    15.6103    64.4222 C.ar       1           0.1833
     34 C21        17.2372    16.2775    63.3026 C.ar       1          -0.0930
     35 C22        18.5759    16.4850    63.2021 C.ar       1          -0.0633
     36 H3         20.8149    12.1489    64.2202 H          1           0.4148
     37 H4         19.9419    13.5844    64.2401 H          1           0.4141
     38 H5         24.0097    18.8096    64.6912 H          1           0.1086
     39 H6         24.8221    17.9133    63.3854 H          1           0.1019
     40 H7         22.6447    20.0138    63.1805 H          1           0.0962
     41 H8         23.4404    17.9415    61.0823 H          1           0.0937
     42 H9         21.8488    18.0866    61.8678 H          1           0.1119
     43 H10        21.8379    19.1562    59.6300 H          1           0.1343
     44 H11        21.5855    20.3603    60.9159 H          1           0.1286
     45 H12        24.9045    21.7547    60.7621 H          1           0.1370
     46 H13        23.3121    21.8232    61.5532 H          1           0.1310
     47 H14        24.9905    20.7485    63.0275 H          1           0.1184
     48 H15        25.3105    19.5262    61.7727 H          1           0.0941
     49 H16        25.1926    13.3456    63.7805 H          1           0.2082
     50 H17        19.6415    15.0245    66.0817 H          1           0.1404
     51 H18        17.6923    14.1237    67.3470 H          1           0.1553
     52 H19        15.2587    13.7972    67.4615 H          1           0.1557
     53 H20        11.7710    15.6488    65.5564 H          1           0.1173
     54 H21        13.2228    16.5445    65.0482 H          1           0.1179
     55 H22        16.5769    16.6300    62.5240 H          1           0.1456
     56 H23        18.9714    17.0027    62.3407 H          1           0.1377
@<TRIPOS>BOND
     1    1    2 1
     2    1   36 1
     3    1   37 1
     4    2   19 ar
     5    2    3 ar
     6    3   16 ar
     7    3    4 1
     8    4    5 2
     9    4   20 1
    10    5    6 1
    11    6    7 1
    12    6   16 1
    13    7    8 1
    14    7   38 1
    15    7   39 1
    16    8   15 1
    17    8    9 1
    18    8   40 1
    19    9   10 1
    20    9   41 1
    21    9   42 1
    22   10   11 1
    23   10   43 1
    24   10   44 1
    25   11   12 1
    26   11   13 1
    27   11   14 1
    28   14   15 1
    29   14   45 1
    30   14   46 1
    31   15   47 1
    32   15   48 1
    33   16   17 ar
    34   17   18 ar
    35   18   19 ar
    36   18   49 1
    37   20   35 ar
    38   20   21 ar
    39   21   22 ar
    40   21   50 1
    41   22   33 ar
    42   22   23 ar
    43   23   24 ar
    44   23   51 1
    45   24   25 ar
    46   24   52 1
    47   25   26 1
    48   25   32 ar
    49   26   27 1
    50   27   28 1
    51   27   53 1
    52   27   54 1
    53   28   29 1
    54   28   30 1
    55   28   31 1
    56   32   33 ar
    57   33   34 ar
    58   34   35 ar
    59   34   55 1
    60   35   56 1
##########                 Name:                 1505
##########          Protonation:                   98
##########               SMILES:   C[NH+]1CC[C@@H](CC1)Cn2nc(c(c2c3cc4c(cc(cc4)OC)cc3)C(=O)N)N
##########            Long Name:   y-2-naphthyl)-1-[(1-methylpiperidin-1-ium-4-yl)methyl]pyrazole-4-carboxamide
##########          FlexRecCode: 1
##########               Number:                   58
##########   Ligand Source File: /raid1/people/rgc/Examples/tdt/part3/ligand22set/build/ligand22set-0000001.db2.g
##########           GlobalRank: 7
##########                 Rank:                    1
##########               Setnum:                  215
##########             Matchnum:                27763
##########                Cloud:                    1
##########        Electrostatic:           -16.091736
##########        Van der Waals:           -33.181915
##########  Ligand Polar Desolv:             8.204774
########## Ligand Apolar Desolv:            -2.483452
##########      Internal Energy:             0.000000
##########      Receptor Energy: 0.0
########## Receptor Desolvation:             0.000000
########## Receptor Hydrophobic:             0.000000
##########         Total Energy: -43.55
##########        Ligand Charge:             1.000000
##########            Arbitrary:    +999.9990
##########     heavy atom count:   29
##########           pose count:   10
##########        Ligand Energy:             0.000000
# num electro vdwattr vdwrepu polsolv apolsol rdesolv rhydroe totalscore fullpol fullapo
#   1    0.18   -2.38    1.21    0.05    0.02    0.00    0.00      -0.93    0.08    0.03
#   2   -3.59   -1.87    0.34   -1.17    0.60    0.00    0.00      -5.68   -1.78    0.92
#   3    1.80   -2.54    0.77    0.33   -0.20    0.00    0.00       0.16    0.51   -0.31
#   4   -2.76   -2.67    0.83   -0.73   -0.27    0.00    0.00      -5.59   -1.22   -0.45
#   5    0.02   -2.23    0.49   -0.10   -0.24    0.00    0.00      -2.05   -0.17   -0.40
#   6   -2.00   -3.71    5.21   -0.66   -0.25    0.00    0.00      -1.41   -1.18   -0.45
#   7   -1.12   -2.34    1.32   -0.45   -0.19    0.00    0.00      -2.78   -0.91   -0.39
#   8   -0.58   -1.80    0.47   -0.21   -0.18    0.00    0.00      -2.30   -0.44   -0.37
#   9   -0.34   -2.71    2.13   -0.28   -0.23    0.00    0.00      -1.42   -0.51   -0.42
#  10   -0.92   -2.12    0.42   -0.45   -0.24    0.00    0.00      -3.31   -0.76   -0.40
#  11   -0.32   -3.01    0.82   -0.34   -0.29    0.00    0.00      -3.13   -0.53   -0.45
#  12   -1.01   -3.12    0.92   -0.90   -0.28    0.00    0.00      -4.39   -1.37   -0.43
#  13    0.53   -1.66    0.38    0.90   -0.31    0.00    0.00      -0.15    2.00   -0.68
#  14   -0.23   -1.90    0.57   -1.24   -0.20    0.00    0.00      -3.01   -2.51   -0.41
#  15    1.98   -3.00    1.02    1.61   -0.36    0.00    0.00       1.25    2.66   -0.60
#  16   -5.46   -5.77    5.53   -3.95    1.25    0.00    0.00      -8.40   -6.19    1.96
#  17   -1.62   -4.34    2.85   -0.01    0.28    0.00    0.00      -2.84   -0.02    0.44
#  18   -0.83   -1.67    0.34    1.09   -1.02    0.00    0.00      -2.08    2.46   -2.30
#  19    4.70   -2.46    1.76   -3.09    0.42    0.00    0.00       1.32   -6.89    0.93
#  20    0.84   -1.50    0.26   -1.28    0.47    0.00    0.00      -1.20   -3.32    1.22
#  21    0.09   -1.55    0.22   -1.63    0.39    0.00    0.00      -2.47   -3.84    0.93
#  22   -0.22   -1.41    0.38    0.82   -0.19    0.00    0.00      -0.62    1.78   -0.42
#  23    1.02   -0.82    0.07   -0.87   -0.06    0.00    0.00      -0.67   -2.23   -0.15
#  24    1.63   -0.67    0.07   -1.20   -0.08    0.00    0.00      -0.25   -3.17   -0.21
#  25    0.13   -0.92    0.20    0.16   -0.15    0.00    0.00      -0.58    0.45   -0.43
#  26    4.90   -0.66    0.07   -2.88    0.15    0.00    0.00       1.57  -10.92    0.56
#  27   -6.16   -0.02    0.00    2.60    0.09    0.00    0.00      -3.49   16.21    0.56
#  28    0.45   -0.44    0.02   -0.52   -0.12    0.00    0.00      -0.61   -1.97   -0.44
#  29    0.05   -0.55    0.06    0.05   -0.11    0.00    0.00      -0.51    0.20   -0.42
#  30    1.13   -1.45    0.76   -1.21   -0.07    0.00    0.00      -0.83   -3.62   -0.21
#  31    0.52   -0.87    0.93    0.32   -0.15    0.00    0.00       0.75    0.57   -0.27
#  32    0.44   -1.12    1.53    0.67   -0.17    0.00    0.00       1.36    1.13   -0.28
#  33    0.41   -1.09    0.90    0.46   -0.16    0.00    0.00       0.52    0.78   -0.27
#  34    2.23   -0.77    0.46    0.64   -0.15    0.00    0.00       2.41    1.16   -0.28
#  35    2.07   -1.10    1.78    1.29   -0.15    0.00    0.00       3.90    2.37   -0.28
#  36    0.52   -0.40    0.13    1.00   -0.09    0.00    0.00       1.16    2.65   -0.25
#  37    0.93   -0.94    1.40    0.26   -0.13    0.00    0.00       1.52    0.57   -0.28
#  38    0.34   -1.14    1.41    0.78   -0.17    0.00    0.00       1.21    1.26   -0.28
#  39   -0.09   -0.80    0.23    0.83   -0.14    0.00    0.00       0.03    1.34   -0.22
#  40    2.35   -0.10    0.01    2.58    0.36    0.00    0.00       5.20    4.24    0.59
#  41    3.81   -0.19    0.03    2.12    0.39    0.00    0.00       6.17    3.24    0.60
#  42   -5.04   -0.17    0.08    1.33    0.23    0.00    0.00      -3.56    3.29    0.58
#  43   -1.63   -0.02    0.00    1.05    0.15    0.00    0.00      -0.46    4.11    0.59
#  44    0.17   -0.54    0.31    0.89   -0.08    0.00    0.00       0.75    2.29   -0.21
#  45   -0.04   -0.86    0.45    1.22   -0.14    0.00    0.00       0.63    2.40   -0.28
#  46   -1.19   -0.35    0.07    0.35   -0.08    0.00    0.00      -1.20    1.20   -0.28
#  47   -0.77   -0.22    0.04    0.50   -0.04    0.00    0.00      -0.49    2.55   -0.22
#  48   -1.38   -0.25    0.03    0.06   -0.07    0.00    0.00      -1.60    0.23   -0.26
#  49   -3.05   -0.60    0.36    1.58   -0.10    0.00    0.00      -1.82    4.24   -0.28
#  50   -3.15   -0.31    0.09    0.92   -0.08    0.00    0.00      -2.53    3.42   -0.28
#  51   -0.60   -0.09    0.00    0.34   -0.02    0.00    0.00      -0.37    3.89   -0.28
#  52   -0.87   -0.13    0.01    0.59   -0.03    0.00    0.00      -0.44    4.79   -0.28
#  53   -0.91   -0.21    0.02    0.72   -0.04    0.00    0.00      -0.41    3.10   -0.15
#  54   -0.70   -0.15    0.02    0.80   -0.04    0.00    0.00      -0.07    5.70   -0.28
#  55   -1.40   -0.16    0.01    0.64   -0.05    0.00    0.00      -0.96    3.88   -0.28
#  56   -0.57   -1.32    2.15    1.00   -0.11    0.00    0.00       1.16    2.57   -0.28
#  57   -0.80   -0.55    0.59    0.84   -0.05    0.00    0.00       0.02    3.43   -0.22

@<TRIPOS>MOLECULE
             1505        98
   57    60     0     0     0



@<TRIPOS>ATOM
      1 C1         13.8763    14.9271    67.0313 C.3        1           0.0231
      2 O1         14.4017    15.5611    65.8633 O.3        1          -0.3127
      3 C2         15.7337    15.4245    65.6335 C.ar       1           0.1460
      4 C3         16.2979    16.0179    64.5269 C.ar       1          -0.1625
      5 C4         17.6742    15.8766    64.2908 C.ar       1           0.0015
      6 C5         18.2812    16.4715    63.1687 C.ar       1          -0.1063
      7 C6         19.6135    16.3230    62.9587 C.ar       1          -0.0937
      8 C7         20.4054    15.5777    63.8516 C.ar       1          -0.0763
      9 C8         19.8373    14.9796    64.9648 C.ar       1          -0.0415
     10 C9         18.4615    15.1226    65.1986 C.ar       1          -0.0875
     11 C10        17.8519    14.5303    66.3194 C.ar       1          -0.0572
     12 C11        16.5173    14.6874    66.5268 C.ar       1          -0.1873
     13 C12        21.8528    15.4314    63.6001 C.2        1           0.2019
     14 C13        22.5421    14.2343    63.3989 C.2        1          -0.3100
     15 C14        21.9657    12.8832    63.3972 C.2        1           0.6022
     16 N1         21.8924    12.1804    64.5448 N.am       1          -0.8443
     17 O2         21.5546    12.3986    62.3597 O.2        1          -0.5371
     18 C15        23.9031    14.5706    63.1960 C.2        1           0.3850
     19 N2         24.9420    13.6708    62.9570 N.pl3      1          -0.8361
     20 N3         24.0164    15.8733    63.2708 N.2        1          -0.3520
     21 N4         22.7572    16.4313    63.5160 N.pl3      1          -0.3564
     22 C16        22.4685    17.8603    63.6603 C.3        1           0.1401
     23 C17        23.1857    18.6396    62.5562 C.3        1          -0.1198
     24 C18        23.1067    17.8566    61.2425 C.3        1          -0.1413
     25 C19        23.8932    18.6024    60.1624 C.3        1          -0.0070
     26 N5         25.2962    18.7300    60.5739 N.4        1          -0.3818
     27 H1         25.8228    19.1744    59.8369 H          1           0.4287
     28 C20        25.8519    17.3954    60.8346 C.3        1          -0.0581
     29 C21        25.3856    19.5408    61.7942 C.3        1          -0.0053
     30 C22        24.6565    18.8311    62.9372 C.3        1          -0.1422
     31 H2         12.8046    15.1142    67.0954 H          1           0.0599
     32 H3         14.0551    13.8535    66.9734 H          1           0.1064
     33 H4         14.3691    15.3303    67.9161 H          1           0.0582
     34 H5         15.6853    16.5885    63.8446 H          1           0.1395
     35 H6         17.6862    17.0462    62.4745 H          1           0.1354
     36 H7         20.0717    16.7823    62.0953 H          1           0.1245
     37 H8         20.4488    14.4078    65.6472 H          1           0.1365
     38 H9         18.4435    13.9547    67.0159 H          1           0.1358
     39 H10        16.0557    14.2336    67.3913 H          1           0.1362
     40 H11        22.2202    12.5668    65.3720 H          1           0.4032
     41 H12        21.5118    11.2882    64.5436 H          1           0.4054
     42 H13        24.7597    12.7190    62.9184 H          1           0.4137
     43 H14        25.8465    13.9972    62.8296 H          1           0.4090
     44 H15        21.3937    18.0236    63.5810 H          1           0.1034
     45 H16        22.8175    18.2050    64.6338 H          1           0.1050
     46 H17        22.7120    19.6133    62.4306 H          1           0.0973
     47 H18        23.5341    16.8640    61.3841 H          1           0.0935
     48 H19        22.0648    17.7645    60.9358 H          1           0.1147
     49 H20        23.8388    18.0476    59.2257 H          1           0.1320
     50 H21        23.4646    19.5946    60.0214 H          1           0.1285
     51 H22        26.8940    17.4890    61.1403 H          1           0.1239
     52 H23        25.2822    16.9133    61.6291 H          1           0.1244
     53 H24        25.7919    16.7933    59.9279 H          1           0.1263
     54 H25        26.4331    19.6788    62.0623 H          1           0.1340
     55 H26        24.9253    20.5130    61.6185 H          1           0.1299
     56 H27        24.7225    19.4355    63.8418 H          1           0.1163
     57 H28        25.1162    17.8588    63.1140 H          1           0.0949
@<TRIPOS>BOND
     1    1    2 1
     2    1   31 1
     3    1   32 1
     4    1   33 1
     5    2    3 1
     6    3   12 ar
     7    3    4 ar
     8    4    5 ar
     9    4   34 1
    10    5   10 ar
    11    5    6 ar
    12    6    7 ar
    13    6   35 1
    14    7    8 ar
    15    7   36 1
    16    8    9 ar
    17    8   13 1
    18    9   10 ar
    19    9   37 1
    20   10   11 ar
    21   11   12 ar
    22   11   38 1
    23   12   39 1
    24   13   21 1
    25   13   14 2
    26   14   15 1
    27   14   18 1
    28   15   16 am
    29   15   17 2
    30   16   40 1
    31   16   41 1
    32   18   19 1
    33   18   20 2
    34   19   42 1
    35   19   43 1
    36   20   21 1
    37   21   22 1
    38   22   23 1
    39   22   44 1
    40   22   45 1
    41   23   30 1
    42   23   24 1
    43   23   46 1
    44   24   25 1
    45   24   47 1
    46   24   48 1
    47   25   26 1
    48   25   49 1
    49   25   50 1
    50   26   27 1
    51   26   28 1
    52   26   29 1
    53   28   51 1
    54   28   52 1
    55   28   53 1
    56   29   30 1
    57   29   54 1
    58   29   55 1
    59   30   56 1
    60   30   57 1
##########                 Name:                 1505
##########          Protonation:                   98
##########               SMILES:   C[NH+]1CC[C@@H](CC1)Cn2nc(c(c2c3cc4c(cc(cc4)OC)cc3)C(=O)N)N
##########            Long Name:   y-2-naphthyl)-1-[(1-methylpiperidin-1-ium-4-yl)methyl]pyrazole-4-carboxamide
##########          FlexRecCode: 1
##########               Number:                   58
##########   Ligand Source File: /raid1/people/rgc/Examples/tdt/part3/ligand22set/build/ligand22set-0000001.db2.g
##########           GlobalRank: 7
##########                 Rank:                    2
##########               Setnum:                  234
##########             Matchnum:                27763
##########                Cloud:                    1
##########        Electrostatic:           -14.445930
##########        Van der Waals:           -34.309410
##########  Ligand Polar Desolv:             8.053526
########## Ligand Apolar Desolv:            -2.434695
##########      Internal Energy:             0.000000
##########      Receptor Energy: 0.0
########## Receptor Desolvation:             0.000000
########## Receptor Hydrophobic:             0.000000
##########         Total Energy: -43.14
##########        Ligand Charge:             1.000000
##########            Arbitrary:    +999.9990
##########     heavy atom count:   29
##########           pose count:   10
##########        Ligand Energy:             0.000000
# num electro vdwattr vdwrepu polsolv apolsol rdesolv rhydroe totalscore fullpol fullapo
#   1    0.27   -1.77    0.60    0.05    0.02    0.00    0.00      -0.83    0.08    0.03
#   2   -3.59   -1.87    0.34   -1.17    0.60    0.00    0.00      -5.68   -1.78    0.92
#   3    1.80   -2.54    0.77    0.33   -0.20    0.00    0.00       0.16    0.51   -0.31
#   4   -2.76   -2.67    0.83   -0.73   -0.27    0.00    0.00      -5.59   -1.22   -0.45
#   5    0.02   -2.23    0.49   -0.10   -0.24    0.00    0.00      -2.05   -0.17   -0.40
#   6   -2.00   -3.71    5.21   -0.66   -0.25    0.00    0.00      -1.41   -1.18   -0.45
#   7   -1.12   -2.34    1.32   -0.45   -0.19    0.00    0.00      -2.78   -0.91   -0.39
#   8   -0.58   -1.80    0.47   -0.21   -0.18    0.00    0.00      -2.30   -0.44   -0.37
#   9   -0.34   -2.71    2.13   -0.28   -0.23    0.00    0.00      -1.42   -0.51   -0.42
#  10   -0.92   -2.12    0.42   -0.45   -0.24    0.00    0.00      -3.31   -0.76   -0.40
#  11   -0.32   -3.01    0.82   -0.34   -0.29    0.00    0.00      -3.13   -0.53   -0.45
#  12   -1.01   -3.12    0.92   -0.90   -0.28    0.00    0.00      -4.39   -1.37   -0.43
#  13    0.53   -1.66    0.38    0.90   -0.31    0.00    0.00      -0.15    2.00   -0.68
#  14   -0.23   -1.90    0.57   -1.24   -0.20    0.00    0.00      -3.01   -2.51   -0.41
#  15    1.98   -3.00    1.02    1.61   -0.36    0.00    0.00       1.25    2.66   -0.60
#  16   -5.46   -5.77    5.53   -3.95    1.25    0.00    0.00      -8.40   -6.19    1.96
#  17   -1.62   -4.34    2.85   -0.01    0.28    0.00    0.00      -2.84   -0.02    0.44
#  18   -0.83   -1.67    0.34    1.09   -1.02    0.00    0.00      -2.08    2.46   -2.30
#  19    4.70   -2.46    1.76   -3.09    0.42    0.00    0.00       1.32   -6.89    0.93
#  20    0.84   -1.50    0.26   -1.28    0.47    0.00    0.00      -1.20   -3.32    1.22
#  21    0.09   -1.55    0.22   -1.63    0.39    0.00    0.00      -2.47   -3.84    0.93
#  22   -0.22   -1.41    0.38    0.82   -0.19    0.00    0.00      -0.62    1.78   -0.42
#  23    1.02   -0.82    0.07   -0.87   -0.06    0.00    0.00      -0.67   -2.23   -0.15
#  24    1.63   -0.67    0.07   -1.20   -0.08    0.00    0.00      -0.25   -3.17   -0.21
#  25    0.13   -0.92    0.20    0.16   -0.15    0.00    0.00      -0.58    0.45   -0.43
#  26    4.90   -0.66    0.07   -2.88    0.15    0.00    0.00       1.57  -10.92    0.56
#  27   -6.16   -0.02    0.00    2.60    0.09    0.00    0.00      -3.49   16.21    0.56
#  28    0.45   -0.44    0.02   -0.52   -0.12    0.00    0.00      -0.61   -1.97   -0.44
#  29    0.05   -0.55    0.06    0.05   -0.11    0.00    0.00      -0.51    0.20   -0.42
#  30    1.13   -1.45    0.76   -1.21   -0.07    0.00    0.00      -0.83   -3.62   -0.21
#  31    0.60   -0.54    0.29    0.30   -0.14    0.00    0.00       0.50    0.57   -0.27
#  32    1.78   -0.94    0.74    0.62   -0.15    0.00    0.00       2.05    1.13   -0.28
#  33    0.55   -0.57    0.16    0.39   -0.13    0.00    0.00       0.40    0.78   -0.27
#  34    2.23   -0.77    0.46    0.64   -0.15    0.00    0.00       2.41    1.16   -0.28
#  35    2.07   -1.10    1.78    1.29   -0.15    0.00    0.00       3.90    2.37   -0.28
#  36    0.52   -0.40    0.13    1.00   -0.09    0.00    0.00       1.16    2.65   -0.25
#  37    0.93   -0.94    1.40    0.26   -0.13    0.00    0.00       1.52    0.57   -0.28
#  38    0.34   -1.14    1.41    0.78   -0.17    0.00    0.00       1.21    1.26   -0.28
#  39   -0.09   -0.80    0.23    0.83   -0.14    0.00    0.00       0.03    1.34   -0.22
#  40    2.35   -0.10    0.01    2.58    0.36    0.00    0.00       5.20    4.24    0.59
#  41    3.81   -0.19    0.03    2.12    0.39    0.00    0.00       6.17    3.24    0.60
#  42   -5.04   -0.17    0.08    1.33    0.23    0.00    0.00      -3.56    3.29    0.58
#  43   -1.63   -0.02    0.00    1.05    0.15    0.00    0.00      -0.46    4.11    0.59
#  44    0.17   -0.54    0.31    0.89   -0.08    0.00    0.00       0.75    2.29   -0.21
#  45   -0.04   -0.86    0.45    1.22   -0.14    0.00    0.00       0.63    2.40   -0.28
#  46   -1.19   -0.35    0.07    0.35   -0.08    0.00    0.00      -1.20    1.20   -0.28
#  47   -0.77   -0.22    0.04    0.50   -0.04    0.00    0.00      -0.49    2.55   -0.22
#  48   -1.38   -0.25    0.03    0.06   -0.07    0.00    0.00      -1.60    0.23   -0.26
#  49   -3.05   -0.60    0.36    1.58   -0.10    0.00    0.00      -1.82    4.24   -0.28
#  50   -3.15   -0.31    0.09    0.92   -0.08    0.00    0.00      -2.53    3.42   -0.28
#  51   -0.60   -0.09    0.00    0.34   -0.02    0.00    0.00      -0.37    3.89   -0.28
#  52   -0.87   -0.13    0.01    0.59   -0.03    0.00    0.00      -0.44    4.79   -0.28
#  53   -0.91   -0.21    0.02    0.72   -0.04    0.00    0.00      -0.41    3.10   -0.15
#  54   -0.70   -0.15    0.02    0.80   -0.04    0.00    0.00      -0.07    5.70   -0.28
#  55   -1.40   -0.16    0.01    0.64   -0.05    0.00    0.00      -0.96    3.88   -0.28
#  56   -0.57   -1.32    2.15    1.00   -0.11    0.00    0.00       1.16    2.57   -0.28
#  57   -0.80   -0.55    0.59    0.84   -0.05    0.00    0.00       0.02    3.43   -0.22

@<TRIPOS>MOLECULE
             1505        98
   57    60     0     0     0



@<TRIPOS>ATOM
      1 C1         13.6548    16.3256    64.9147 C.3        1           0.0231
      2 O1         14.4017    15.5611    65.8633 O.3        1          -0.3127
      3 C2         15.7337    15.4245    65.6335 C.ar       1           0.1460
      4 C3         16.2979    16.0179    64.5269 C.ar       1          -0.1625
      5 C4         17.6742    15.8766    64.2908 C.ar       1           0.0015
      6 C5         18.2812    16.4715    63.1687 C.ar       1          -0.1063
      7 C6         19.6135    16.3230    62.9587 C.ar       1          -0.0937
      8 C7         20.4054    15.5777    63.8516 C.ar       1          -0.0763
      9 C8         19.8373    14.9796    64.9648 C.ar       1          -0.0415
     10 C9         18.4615    15.1226    65.1986 C.ar       1          -0.0875
     11 C10        17.8519    14.5303    66.3194 C.ar       1          -0.0572
     12 C11        16.5173    14.6874    66.5268 C.ar       1          -0.1873
     13 C12        21.8528    15.4314    63.6001 C.2        1           0.2019
     14 C13        22.5421    14.2343    63.3989 C.2        1          -0.3100
     15 C14        21.9657    12.8832    63.3972 C.2        1           0.6022
     16 N1         21.8924    12.1804    64.5448 N.am       1          -0.8443
     17 O2         21.5546    12.3986    62.3597 O.2        1          -0.5371
     18 C15        23.9031    14.5706    63.1960 C.2        1           0.3850
     19 N2         24.9420    13.6708    62.9570 N.pl3      1          -0.8361
     20 N3         24.0164    15.8733    63.2708 N.2        1          -0.3520
     21 N4         22.7572    16.4313    63.5160 N.pl3      1          -0.3564
     22 C16        22.4685    17.8603    63.6603 C.3        1           0.1401
     23 C17        23.1857    18.6396    62.5562 C.3        1          -0.1198
     24 C18        23.1067    17.8566    61.2425 C.3        1          -0.1413
     25 C19        23.8932    18.6024    60.1624 C.3        1          -0.0070
     26 N5         25.2962    18.7300    60.5739 N.4        1          -0.3818
     27 H1         25.8228    19.1744    59.8369 H          1           0.4287
     28 C20        25.8519    17.3954    60.8346 C.3        1          -0.0581
     29 C21        25.3856    19.5408    61.7942 C.3        1          -0.0053
     30 C22        24.6565    18.8311    62.9372 C.3        1          -0.1422
     31 H2         12.6078    16.3559    65.2162 H          1           0.0599
     32 H3         14.0506    17.3403    64.8735 H          1           0.1064
     33 H4         13.7364    15.8635    63.9309 H          1           0.0582
     34 H5         15.6853    16.5885    63.8446 H          1           0.1395
     35 H6         17.6862    17.0462    62.4745 H          1           0.1354
     36 H7         20.0717    16.7823    62.0953 H          1           0.1245
     37 H8         20.4488    14.4078    65.6472 H          1           0.1365
     38 H9         18.4435    13.9547    67.0159 H          1           0.1358
     39 H10        16.0557    14.2336    67.3913 H          1           0.1362
     40 H11        22.2202    12.5668    65.3720 H          1           0.4032
     41 H12        21.5118    11.2882    64.5436 H          1           0.4054
     42 H13        24.7597    12.7190    62.9184 H          1           0.4137
     43 H14        25.8465    13.9972    62.8296 H          1           0.4090
     44 H15        21.3937    18.0236    63.5810 H          1           0.1034
     45 H16        22.8175    18.2050    64.6338 H          1           0.1050
     46 H17        22.7120    19.6133    62.4306 H          1           0.0973
     47 H18        23.5341    16.8640    61.3841 H          1           0.0935
     48 H19        22.0648    17.7645    60.9358 H          1           0.1147
     49 H20        23.8388    18.0476    59.2257 H          1           0.1320
     50 H21        23.4646    19.5946    60.0214 H          1           0.1285
     51 H22        26.8940    17.4890    61.1403 H          1           0.1239
     52 H23        25.2822    16.9133    61.6291 H          1           0.1244
     53 H24        25.7919    16.7933    59.9279 H          1           0.1263
     54 H25        26.4331    19.6788    62.0623 H          1           0.1340
     55 H26        24.9253    20.5130    61.6185 H          1           0.1299
     56 H27        24.7225    19.4355    63.8418 H          1           0.1163
     57 H28        25.1162    17.8588    63.1140 H          1           0.0949
@<TRIPOS>BOND
     1    1    2 1
     2    1   31 1
     3    1   32 1
     4    1   33 1
     5    2    3 1
     6    3   12 ar
     7    3    4 ar
     8    4    5 ar
     9    4   34 1
    10    5   10 ar
    11    5    6 ar
    12    6    7 ar
    13    6   35 1
    14    7    8 ar
    15    7   36 1
    16    8    9 ar
    17    8   13 1
    18    9   10 ar
    19    9   37 1
    20   10   11 ar
    21   11   12 ar
    22   11   38 1
    23   12   39 1
    24   13   21 1
    25   13   14 2
    26   14   15 1
    27   14   18 1
    28   15   16 am
    29   15   17 2
    30   16   40 1
    31   16   41 1
    32   18   19 1
    33   18   20 2
    34   19   42 1
    35   19   43 1
    36   20   21 1
    37   21   22 1
    38   22   23 1
    39   22   44 1
    40   22   45 1
    41   23   30 1
    42   23   24 1
    43   23   46 1
    44   24   25 1
    45   24   47 1
    46   24   48 1
    47   25   26 1
    48   25   49 1
    49   25   50 1
    50   26   27 1
    51   26   28 1
    52   26   29 1
    53   28   51 1
    54   28   52 1
    55   28   53 1
    56   29   30 1
    57   29   54 1
    58   29   55 1
    59   30   56 1
    60   30   57 1
##########                 Name:                 1505
##########          Protonation:                   98
##########               SMILES:   C[NH+]1CC[C@@H](CC1)Cn2nc(c(c2c3cc4c(cc(cc4)OC)cc3)C(=O)N)N
##########            Long Name:   y-2-naphthyl)-1-[(1-methylpiperidin-1-ium-4-yl)methyl]pyrazole-4-carboxamide
##########          FlexRecCode: 1
##########               Number:                   58
##########   Ligand Source File: /raid1/people/rgc/Examples/tdt/part3/ligand22set/build/ligand22set-0000001.db2.g
##########           GlobalRank: 7
##########                 Rank:                    3
##########               Setnum:                  175
##########             Matchnum:                27793
##########                Cloud:                    1
##########        Electrostatic:           -22.862780
##########        Van der Waals:           -27.667391
##########  Ligand Polar Desolv:            10.710071
########## Ligand Apolar Desolv:            -2.549335
##########      Internal Energy:             0.000000
##########      Receptor Energy: 0.0
########## Receptor Desolvation:             0.000000
########## Receptor Hydrophobic:             0.000000
##########         Total Energy: -42.37
##########        Ligand Charge:             1.000000
##########            Arbitrary:    +999.9990
##########     heavy atom count:   29
##########           pose count:   10
##########        Ligand Energy:             0.000000
# num electro vdwattr vdwrepu polsolv apolsol rdesolv rhydroe totalscore fullpol fullapo
#   1    0.20   -2.45    1.41    0.05    0.02    0.00    0.00      -0.77    0.08    0.03
#   2   -3.64   -1.86    0.33   -1.17    0.60    0.00    0.00      -5.75   -1.78    0.92
#   3    1.84   -2.53    0.73    0.33   -0.20    0.00    0.00       0.17    0.51   -0.31
#   4   -2.54   -2.59    0.74   -0.73   -0.27    0.00    0.00      -5.39   -1.22   -0.45
#   5    0.02   -2.15    0.43   -0.10   -0.24    0.00    0.00      -2.04   -0.17   -0.40
#   6   -1.50   -2.89    1.41   -0.66   -0.25    0.00    0.00      -3.89   -1.18   -0.45
#   7   -0.83   -2.05    0.60   -0.45   -0.19    0.00    0.00      -2.93   -0.91   -0.39
#   8   -0.54   -1.69    0.36   -0.22   -0.18    0.00    0.00      -2.27   -0.44   -0.37
#   9   -0.35   -2.98    3.10   -0.27   -0.23    0.00    0.00      -0.73   -0.51   -0.42
#  10   -0.95   -2.17    0.48   -0.45   -0.24    0.00    0.00      -3.33   -0.76   -0.40
#  11   -0.41   -3.01    0.72   -0.34   -0.29    0.00    0.00      -3.32   -0.53   -0.45
#  12   -1.36   -3.08    0.85   -0.90   -0.28    0.00    0.00      -4.77   -1.37   -0.43
#  13    0.48   -1.63    0.38    0.91   -0.31    0.00    0.00      -0.16    2.00   -0.68
#  14   -0.32   -1.96    0.52   -1.27   -0.21    0.00    0.00      -3.24   -2.51   -0.41
#  15    2.49   -3.27    1.27    1.62   -0.36    0.00    0.00       1.73    2.66   -0.60
#  16   -5.17   -7.48   13.70   -3.89    1.23    0.00    0.00      -1.61   -6.19    1.96
#  17   -3.70   -5.32    5.02   -0.01    0.29    0.00    0.00      -3.72   -0.02    0.44
#  18   -0.81   -1.75    0.39    1.09   -1.02    0.00    0.00      -2.10    2.46   -2.30
#  19    4.01   -2.42    1.39   -3.06    0.41    0.00    0.00       0.32   -6.89    0.93
#  20    0.99   -1.32    0.17   -1.26    0.46    0.00    0.00      -0.96   -3.32    1.22
#  21    0.35   -1.35    0.17   -1.58    0.38    0.00    0.00      -2.03   -3.84    0.93
#  22   -0.45   -0.92    0.11    0.77   -0.18    0.00    0.00      -0.68    1.78   -0.42
#  23    1.28   -0.62    0.03   -0.90   -0.06    0.00    0.00      -0.27   -2.23   -0.15
#  24    1.39   -0.62    0.05   -0.97   -0.06    0.00    0.00      -0.21   -3.17   -0.21
#  25    0.10   -0.52    0.05    0.12   -0.11    0.00    0.00      -0.37    0.45   -0.43
#  26    7.54   -1.07    0.35   -3.40    0.17    0.00    0.00       3.59  -10.92    0.56
#  27   -9.58   -0.04    0.00    3.60    0.12    0.00    0.00      -5.89   16.21    0.56
#  28    0.79   -0.97    0.35   -0.62   -0.14    0.00    0.00      -0.58   -1.97   -0.44
#  29    0.14   -1.37    0.52    0.08   -0.17    0.00    0.00      -0.79    0.20   -0.42
#  30    2.46   -0.88    0.09   -1.60   -0.09    0.00    0.00      -0.02   -3.62   -0.21
#  31    0.55   -0.97    1.37    0.33   -0.16    0.00    0.00       1.13    0.57   -0.27
#  32    0.41   -0.92    0.52    0.67   -0.17    0.00    0.00       0.52    1.13   -0.28
#  33    0.57   -1.13    1.04    0.47   -0.16    0.00    0.00       0.78    0.78   -0.27
#  34    1.79   -0.65    0.23    0.63   -0.15    0.00    0.00       1.86    1.16   -0.28
#  35    1.42   -1.14    2.00    1.31   -0.15    0.00    0.00       3.43    2.37   -0.28
#  36    0.32   -0.50    0.28    1.09   -0.10    0.00    0.00       1.08    2.65   -0.25
#  37    1.01   -1.33    4.44    0.27   -0.13    0.00    0.00       4.26    0.57   -0.28
#  38    0.66   -1.05    0.71    0.79   -0.17    0.00    0.00       0.93    1.26   -0.28
#  39    0.34   -0.85    0.30    0.83   -0.14    0.00    0.00       0.49    1.34   -0.22
#  40    2.29   -0.22    0.12    2.65    0.37    0.00    0.00       5.21    4.24    0.59
#  41    3.41   -0.21    0.04    2.20    0.41    0.00    0.00       5.85    3.24    0.60
#  42   -3.28   -0.09    0.01    1.38    0.24    0.00    0.00      -1.74    3.29    0.58
#  43   -1.50   -0.02    0.00    1.06    0.15    0.00    0.00      -0.30    4.11    0.59
#  44    0.03   -0.35    0.11    0.71   -0.07    0.00    0.00       0.43    2.29   -0.21
#  45   -0.27   -0.45    0.09    1.01   -0.12    0.00    0.00       0.26    2.40   -0.28
#  46   -1.13   -0.23    0.04    0.27   -0.06    0.00    0.00      -1.12    1.20   -0.28
#  47   -0.75   -0.33    0.07    0.65   -0.06    0.00    0.00      -0.42    2.55   -0.22
#  48   -0.91   -0.19    0.03    0.04   -0.04    0.00    0.00      -1.07    0.23   -0.26
#  49   -1.16   -0.10    0.00    0.39   -0.03    0.00    0.00      -0.88    4.24   -0.28
#  50   -2.08   -0.23    0.04    0.68   -0.06    0.00    0.00      -1.65    3.42   -0.28
#  51   -2.16   -0.41    0.29    0.96   -0.07    0.00    0.00      -1.38    3.89   -0.28
#  52   -1.69   -0.58    0.49    1.28   -0.08    0.00    0.00      -0.57    4.79   -0.28
#  53   -0.82   -0.16    0.01    0.49   -0.02    0.00    0.00      -0.50    3.10   -0.15
#  54   -4.19   -0.84    0.89    2.25   -0.11    0.00    0.00      -1.99    5.70   -0.28
#  55   -4.07   -0.69    0.56    1.54   -0.11    0.00    0.00      -2.77    3.88   -0.28
#  56   -1.93   -0.27    0.02    0.86   -0.09    0.00    0.00      -1.41    2.57   -0.28
#  57   -1.64   -0.55    0.35    1.17   -0.08    0.00    0.00      -0.75    3.43   -0.22

@<TRIPOS>MOLECULE
             1505        98
   57    60     0     0     0



@<TRIPOS>ATOM
      1 C1         13.9696    15.2276    67.1661 C.3        1           0.0231
      2 O1         14.4458    15.5936    65.8694 O.3        1          -0.3127
      3 C2         15.7806    15.4743    65.6461 C.ar       1           0.1460
      4 C3         16.2986    15.8175    64.4177 C.ar       1          -0.1625
      5 C4         17.6777    15.6944    64.1883 C.ar       1           0.0015
      6 C5         18.2382    16.0375    62.9435 C.ar       1          -0.1063
      7 C6         19.5741    15.9114    62.7422 C.ar       1          -0.0937
      8 C7         20.4161    15.4393    63.7660 C.ar       1          -0.0763
      9 C8         19.8945    15.0930    65.0020 C.ar       1          -0.0415
     10 C9         18.5158    15.2171    65.2288 C.ar       1          -0.0875
     11 C10        17.9526    14.8762    66.4718 C.ar       1          -0.0572
     12 C11        16.6138    15.0099    66.6686 C.ar       1          -0.1873
     13 C12        21.8663    15.3114    63.5211 C.2        1           0.2019
     14 C13        22.6181    14.1372    63.5906 C.2        1          -0.3100
     15 C14        22.1170    12.7965    63.9206 C.2        1           0.6022
     16 N1         22.0956    12.3818    65.2028 N.am       1          -0.8443
     17 O2         21.7213    12.0603    63.0364 O.2        1          -0.5371
     18 C15        23.9561    14.4848    63.2814 C.2        1           0.3850
     19 N2         25.0402    13.6079    63.2358 N.pl3      1          -0.8361
     20 N3         23.9985    15.7723    63.0450 N.2        1          -0.3520
     21 N4         22.7134    16.3078    63.1823 N.pl3      1          -0.3564
     22 C16        22.3481    17.7139    62.9934 C.3        1           0.1401
     23 C17        23.0087    18.2457    61.7200 C.3        1          -0.1198
     24 C18        24.4683    18.6056    62.0120 C.3        1          -0.1413
     25 C19        25.0999    19.2104    60.7564 C.3        1          -0.0070
     26 N5         24.3645    20.4200    60.3686 N.4        1          -0.3818
     27 H1         24.8152    20.8459    59.5726 H          1           0.4287
     28 C20        24.3576    21.3680    61.4908 C.3        1          -0.0581
     29 C21        22.9824    20.0717    60.0177 C.3        1          -0.0053
     30 C22        22.2693    19.4998    61.2450 C.3        1          -0.1422
     31 H2         12.8900    15.3698    67.2102 H          1           0.0599
     32 H3         14.2065    14.1811    67.3580 H          1           0.1064
     33 H4         14.4496    15.8528    67.9190 H          1           0.0582
     34 H5         15.6478    16.1789    63.6353 H          1           0.1395
     35 H6         17.6046    16.4010    62.1481 H          1           0.1354
     36 H7         19.9965    16.1765    61.7842 H          1           0.1245
     37 H8         20.5444    14.7304    65.7848 H          1           0.1365
     38 H9         18.5829    14.5122    67.2696 H          1           0.1358
     39 H10        16.1878    14.7503    67.6264 H          1           0.1362
     40 H11        22.4112    12.9688    65.9077 H          1           0.4032
     41 H12        21.7647    11.4965    65.4207 H          1           0.4054
     42 H13        24.9101    12.6659    63.4266 H          1           0.4137
     43 H14        25.9238    13.9404    63.0135 H          1           0.4090
     44 H15        21.2652    17.7990    62.9038 H          1           0.1034
     45 H16        22.6888    18.2960    63.8498 H          1           0.1050
     46 H17        22.9687    17.4827    60.9426 H          1           0.0973
     47 H18        24.5088    19.3301    62.8251 H          1           0.0935
     48 H19        25.0147    17.7064    62.2972 H          1           0.1147
     49 H20        26.1391    19.4675    60.9608 H          1           0.1320
     50 H21        25.0590    18.4847    59.9440 H          1           0.1285
     51 H22        23.8117    22.2668    61.2038 H          1           0.1239
     52 H23        23.8730    20.9081    62.3521 H          1           0.1244
     53 H24        25.3829    21.6326    61.7492 H          1           0.1263
     54 H25        22.4584    20.9647    59.6769 H          1           0.1340
     55 H26        22.9866    19.3278    59.2212 H          1           0.1299
     56 H27        21.2438    19.2403    60.9820 H          1           0.1163
     57 H28        22.2642    20.2432    62.0423 H          1           0.0949
@<TRIPOS>BOND
     1    1    2 1
     2    1   31 1
     3    1   32 1
     4    1   33 1
     5    2    3 1
     6    3   12 ar
     7    3    4 ar
     8    4    5 ar
     9    4   34 1
    10    5   10 ar
    11    5    6 ar
    12    6    7 ar
    13    6   35 1
    14    7    8 ar
    15    7   36 1
    16    8    9 ar
    17    8   13 1
    18    9   10 ar
    19    9   37 1
    20   10   11 ar
    21   11   12 ar
    22   11   38 1
    23   12   39 1
    24   13   21 1
    25   13   14 2
    26   14   15 1
    27   14   18 1
    28   15   16 am
    29   15   17 2
    30   16   40 1
    31   16   41 1
    32   18   19 1
    33   18   20 2
    34   19   42 1
    35   19   43 1
    36   20   21 1
    37   21   22 1
    38   22   23 1
    39   22   44 1
    40   22   45 1
    41   23   30 1
    42   23   24 1
    43   23   46 1
    44   24   25 1
    45   24   47 1
    46   24   48 1
    47   25   26 1
    48   25   49 1
    49   25   50 1
    50   26   27 1
    51   26   28 1
    52   26   29 1
    53   28   51 1
    54   28   52 1
    55   28   53 1
    56   29   30 1
    57   29   54 1
    58   29   55 1
    59   30   56 1
    60   30   57 1
##########                 Name:                 1505
##########          Protonation:                   98
##########               SMILES:   C[NH+]1CC[C@@H](CC1)Cn2nc(c(c2c3cc4c(cc(cc4)OC)cc3)C(=O)N)N
##########            Long Name:   y-2-naphthyl)-1-[(1-methylpiperidin-1-ium-4-yl)methyl]pyrazole-4-carboxamide
##########          FlexRecCode: 1
##########               Number:                   58
##########   Ligand Source File: /raid1/people/rgc/Examples/tdt/part3/ligand22set/build/ligand22set-0000001.db2.g
##########           GlobalRank: 7
##########                 Rank:                    4
##########               Setnum:                  191
##########             Matchnum:                27793
##########                Cloud:                    1
##########        Electrostatic:           -21.828197
##########        Van der Waals:           -28.469288
##########  Ligand Polar Desolv:            10.501206
########## Ligand Apolar Desolv:            -2.477756
##########      Internal Energy:             0.000000
##########      Receptor Energy: 0.0
########## Receptor Desolvation:             0.000000
########## Receptor Hydrophobic:             0.000000
##########         Total Energy: -42.27
##########        Ligand Charge:             1.000000
##########            Arbitrary:    +999.9990
##########     heavy atom count:   29
##########           pose count:   10
##########        Ligand Energy:             0.000000
# num electro vdwattr vdwrepu polsolv apolsol rdesolv rhydroe totalscore fullpol fullapo
#   1    0.25   -1.66    0.46    0.05    0.02    0.00    0.00      -0.88    0.08    0.03
#   2   -3.64   -1.86    0.33   -1.17    0.60    0.00    0.00      -5.75   -1.78    0.92
#   3    1.84   -2.53    0.73    0.33   -0.20    0.00    0.00       0.17    0.51   -0.31
#   4   -2.54   -2.59    0.74   -0.73   -0.27    0.00    0.00      -5.39   -1.22   -0.45
#   5    0.02   -2.15    0.43   -0.10   -0.24    0.00    0.00      -2.04   -0.17   -0.40
#   6   -1.50   -2.89    1.41   -0.66   -0.25    0.00    0.00      -3.89   -1.18   -0.45
#   7   -0.83   -2.05    0.60   -0.45   -0.19    0.00    0.00      -2.93   -0.91   -0.39
#   8   -0.54   -1.69    0.36   -0.22   -0.18    0.00    0.00      -2.27   -0.44   -0.37
#   9   -0.35   -2.98    3.10   -0.27   -0.23    0.00    0.00      -0.73   -0.51   -0.42
#  10   -0.95   -2.17    0.48   -0.45   -0.24    0.00    0.00      -3.33   -0.76   -0.40
#  11   -0.41   -3.01    0.72   -0.34   -0.29    0.00    0.00      -3.32   -0.53   -0.45
#  12   -1.36   -3.08    0.85   -0.90   -0.28    0.00    0.00      -4.77   -1.37   -0.43
#  13    0.48   -1.63    0.38    0.91   -0.31    0.00    0.00      -0.16    2.00   -0.68
#  14   -0.32   -1.96    0.52   -1.27   -0.21    0.00    0.00      -3.24   -2.51   -0.41
#  15    2.49   -3.27    1.27    1.62   -0.36    0.00    0.00       1.73    2.66   -0.60
#  16   -5.17   -7.48   13.70   -3.89    1.23    0.00    0.00      -1.61   -6.19    1.96
#  17   -3.70   -5.32    5.02   -0.01    0.29    0.00    0.00      -3.72   -0.02    0.44
#  18   -0.81   -1.75    0.39    1.09   -1.02    0.00    0.00      -2.10    2.46   -2.30
#  19    4.01   -2.42    1.39   -3.06    0.41    0.00    0.00       0.32   -6.89    0.93
#  20    0.99   -1.32    0.17   -1.26    0.46    0.00    0.00      -0.96   -3.32    1.22
#  21    0.35   -1.35    0.17   -1.58    0.38    0.00    0.00      -2.03   -3.84    0.93
#  22   -0.45   -0.92    0.11    0.77   -0.18    0.00    0.00      -0.68    1.78   -0.42
#  23    1.28   -0.62    0.03   -0.90   -0.06    0.00    0.00      -0.27   -2.23   -0.15
#  24    1.39   -0.62    0.05   -0.97   -0.06    0.00    0.00      -0.21   -3.17   -0.21
#  25    0.10   -0.52    0.05    0.12   -0.11    0.00    0.00      -0.37    0.45   -0.43
#  26    7.54   -1.07    0.35   -3.40    0.17    0.00    0.00       3.59  -10.92    0.56
#  27   -9.58   -0.04    0.00    3.60    0.12    0.00    0.00      -5.89   16.21    0.56
#  28    0.79   -0.97    0.35   -0.62   -0.14    0.00    0.00      -0.58   -1.97   -0.44
#  29    0.14   -1.37    0.52    0.08   -0.17    0.00    0.00      -0.79    0.20   -0.42
#  30    2.46   -0.88    0.09   -1.60   -0.09    0.00    0.00      -0.02   -3.62   -0.21
#  31    0.58   -0.47    0.16    0.28   -0.13    0.00    0.00       0.41    0.57   -0.27
#  32    1.33   -0.88    0.68    0.62   -0.15    0.00    0.00       1.59    1.13   -0.28
#  33    0.61   -0.60    0.37    0.37   -0.13    0.00    0.00       0.61    0.78   -0.27
#  34    1.79   -0.65    0.23    0.63   -0.15    0.00    0.00       1.86    1.16   -0.28
#  35    1.42   -1.14    2.00    1.31   -0.15    0.00    0.00       3.43    2.37   -0.28
#  36    0.32   -0.50    0.28    1.09   -0.10    0.00    0.00       1.08    2.65   -0.25
#  37    1.01   -1.33    4.44    0.27   -0.13    0.00    0.00       4.26    0.57   -0.28
#  38    0.66   -1.05    0.71    0.79   -0.17    0.00    0.00       0.93    1.26   -0.28
#  39    0.34   -0.85    0.30    0.83   -0.14    0.00    0.00       0.49    1.34   -0.22
#  40    2.29   -0.22    0.12    2.65    0.37    0.00    0.00       5.21    4.24    0.59
#  41    3.41   -0.21    0.04    2.20    0.41    0.00    0.00       5.85    3.24    0.60
#  42   -3.28   -0.09    0.01    1.38    0.24    0.00    0.00      -1.74    3.29    0.58
#  43   -1.50   -0.02    0.00    1.06    0.15    0.00    0.00      -0.30    4.11    0.59
#  44    0.03   -0.35    0.11    0.71   -0.07    0.00    0.00       0.43    2.29   -0.21
#  45   -0.27   -0.45    0.09    1.01   -0.12    0.00    0.00       0.26    2.40   -0.28
#  46   -1.13   -0.23    0.04    0.27   -0.06    0.00    0.00      -1.12    1.20   -0.28
#  47   -0.75   -0.33    0.07    0.65   -0.06    0.00    0.00      -0.42    2.55   -0.22
#  48   -0.91   -0.19    0.03    0.04   -0.04    0.00    0.00      -1.07    0.23   -0.26
#  49   -1.16   -0.10    0.00    0.39   -0.03    0.00    0.00      -0.88    4.24   -0.28
#  50   -2.08   -0.23    0.04    0.68   -0.06    0.00    0.00      -1.65    3.42   -0.28
#  51   -2.16   -0.41    0.29    0.96   -0.07    0.00    0.00      -1.38    3.89   -0.28
#  52   -1.69   -0.58    0.49    1.28   -0.08    0.00    0.00      -0.57    4.79   -0.28
#  53   -0.82   -0.16    0.01    0.49   -0.02    0.00    0.00      -0.50    3.10   -0.15
#  54   -4.19   -0.84    0.89    2.25   -0.11    0.00    0.00      -1.99    5.70   -0.28
#  55   -4.07   -0.69    0.56    1.54   -0.11    0.00    0.00      -2.77    3.88   -0.28
#  56   -1.93   -0.27    0.02    0.86   -0.09    0.00    0.00      -1.41    2.57   -0.28
#  57   -1.64   -0.55    0.35    1.17   -0.08    0.00    0.00      -0.75    3.43   -0.22

@<TRIPOS>MOLECULE
             1505        98
   57    60     0     0     0



@<TRIPOS>ATOM
      1 C1         13.6472    16.0735    64.7859 C.3        1           0.0231
      2 O1         14.4458    15.5936    65.8694 O.3        1          -0.3127
      3 C2         15.7806    15.4743    65.6461 C.ar       1           0.1460
      4 C3         16.2986    15.8175    64.4177 C.ar       1          -0.1625
      5 C4         17.6777    15.6944    64.1883 C.ar       1           0.0015
      6 C5         18.2382    16.0375    62.9435 C.ar       1          -0.1063
      7 C6         19.5741    15.9114    62.7422 C.ar       1          -0.0937
      8 C7         20.4161    15.4393    63.7660 C.ar       1          -0.0763
      9 C8         19.8945    15.0930    65.0020 C.ar       1          -0.0415
     10 C9         18.5158    15.2171    65.2288 C.ar       1          -0.0875
     11 C10        17.9526    14.8762    66.4718 C.ar       1          -0.0572
     12 C11        16.6138    15.0099    66.6686 C.ar       1          -0.1873
     13 C12        21.8663    15.3114    63.5211 C.2        1           0.2019
     14 C13        22.6181    14.1372    63.5906 C.2        1          -0.3100
     15 C14        22.1170    12.7965    63.9206 C.2        1           0.6022
     16 N1         22.0956    12.3818    65.2028 N.am       1          -0.8443
     17 O2         21.7213    12.0603    63.0364 O.2        1          -0.5371
     18 C15        23.9561    14.4848    63.2814 C.2        1           0.3850
     19 N2         25.0402    13.6079    63.2358 N.pl3      1          -0.8361
     20 N3         23.9985    15.7723    63.0450 N.2        1          -0.3520
     21 N4         22.7134    16.3078    63.1823 N.pl3      1          -0.3564
     22 C16        22.3481    17.7139    62.9934 C.3        1           0.1401
     23 C17        23.0087    18.2457    61.7200 C.3        1          -0.1198
     24 C18        24.4683    18.6056    62.0120 C.3        1          -0.1413
     25 C19        25.0999    19.2104    60.7564 C.3        1          -0.0070
     26 N5         24.3645    20.4200    60.3686 N.4        1          -0.3818
     27 H1         24.8152    20.8459    59.5726 H          1           0.4287
     28 C20        24.3576    21.3680    61.4908 C.3        1          -0.0581
     29 C21        22.9824    20.0717    60.0177 C.3        1          -0.0053
     30 C22        22.2693    19.4998    61.2450 C.3        1          -0.1422
     31 H2         12.6036    16.1210    65.0969 H          1           0.0599
     32 H3         13.9861    17.0685    64.4976 H          1           0.1064
     33 H4         13.7428    15.3968    63.9367 H          1           0.0582
     34 H5         15.6478    16.1789    63.6353 H          1           0.1395
     35 H6         17.6046    16.4010    62.1481 H          1           0.1354
     36 H7         19.9965    16.1765    61.7842 H          1           0.1245
     37 H8         20.5444    14.7304    65.7848 H          1           0.1365
     38 H9         18.5829    14.5122    67.2696 H          1           0.1358
     39 H10        16.1878    14.7503    67.6264 H          1           0.1362
     40 H11        22.4112    12.9688    65.9077 H          1           0.4032
     41 H12        21.7647    11.4965    65.4207 H          1           0.4054
     42 H13        24.9101    12.6659    63.4266 H          1           0.4137
     43 H14        25.9238    13.9404    63.0135 H          1           0.4090
     44 H15        21.2652    17.7990    62.9038 H          1           0.1034
     45 H16        22.6888    18.2960    63.8498 H          1           0.1050
     46 H17        22.9687    17.4827    60.9426 H          1           0.0973
     47 H18        24.5088    19.3301    62.8251 H          1           0.0935
     48 H19        25.0147    17.7064    62.2972 H          1           0.1147
     49 H20        26.1391    19.4675    60.9608 H          1           0.1320
     50 H21        25.0590    18.4847    59.9440 H          1           0.1285
     51 H22        23.8117    22.2668    61.2038 H          1           0.1239
     52 H23        23.8730    20.9081    62.3521 H          1           0.1244
     53 H24        25.3829    21.6326    61.7492 H          1           0.1263
     54 H25        22.4584    20.9647    59.6769 H          1           0.1340
     55 H26        22.9866    19.3278    59.2212 H          1           0.1299
     56 H27        21.2438    19.2403    60.9820 H          1           0.1163
     57 H28        22.2642    20.2432    62.0423 H          1           0.0949
@<TRIPOS>BOND
     1    1    2 1
     2    1   31 1
     3    1   32 1
     4    1   33 1
     5    2    3 1
     6    3   12 ar
     7    3    4 ar
     8    4    5 ar
     9    4   34 1
    10    5   10 ar
    11    5    6 ar
    12    6    7 ar
    13    6   35 1
    14    7    8 ar
    15    7   36 1
    16    8    9 ar
    17    8   13 1
    18    9   10 ar
    19    9   37 1
    20   10   11 ar
    21   11   12 ar
    22   11   38 1
    23   12   39 1
    24   13   21 1
    25   13   14 2
    26   14   15 1
    27   14   18 1
    28   15   16 am
    29   15   17 2
    30   16   40 1
    31   16   41 1
    32   18   19 1
    33   18   20 2
    34   19   42 1
    35   19   43 1
    36   20   21 1
    37   21   22 1
    38   22   23 1
    39   22   44 1
    40   22   45 1
    41   23   30 1
    42   23   24 1
    43   23   46 1
    44   24   25 1
    45   24   47 1
    46   24   48 1
    47   25   26 1
    48   25   49 1
    49   25   50 1
    50   26   27 1
    51   26   28 1
    52   26   29 1
    53   28   51 1
    54   28   52 1
    55   28   53 1
    56   29   30 1
    57   29   54 1
    58   29   55 1
    59   30   56 1
    60   30   57 1
##########                 Name:                 1505
##########          Protonation:                   98
##########               SMILES:   C[NH+]1CC[C@@H](CC1)Cn2nc(c(c2c3cc4c(cc(cc4)OC)cc3)C(=O)N)N
##########            Long Name:   y-2-naphthyl)-1-[(1-methylpiperidin-1-ium-4-yl)methyl]pyrazole-4-carboxamide
##########          FlexRecCode: 1
##########               Number:                   58
##########   Ligand Source File: /raid1/people/rgc/Examples/tdt/part3/ligand22set/build/ligand22set-0000001.db2.g
##########           GlobalRank: 7
##########                 Rank:                    5
##########               Setnum:                  234
##########             Matchnum:                 9284
##########                Cloud:                    1
##########        Electrostatic:           -15.357705
##########        Van der Waals:           -31.892086
##########  Ligand Polar Desolv:             9.232833
########## Ligand Apolar Desolv:            -2.670846
##########      Internal Energy:             0.000000
##########      Receptor Energy: 0.0
########## Receptor Desolvation:             0.000000
########## Receptor Hydrophobic:             0.000000
##########         Total Energy: -40.69
##########        Ligand Charge:             1.000000
##########            Arbitrary:    +999.9990
##########     heavy atom count:   29
##########           pose count:   10
##########        Ligand Energy:             0.000000
# num electro vdwattr vdwrepu polsolv apolsol rdesolv rhydroe totalscore fullpol fullapo
#   1    0.23   -1.42    0.28    0.05    0.02    0.00    0.00      -0.83    0.08    0.03
#   2   -2.44   -2.43    0.61   -1.15    0.60    0.00    0.00      -4.81   -1.78    0.92
#   3    1.10   -3.05    1.19    0.33   -0.20    0.00    0.00      -0.64    0.51   -0.31
#   4   -2.15   -2.58    0.95   -0.77   -0.28    0.00    0.00      -4.83   -1.22   -0.45
#   5    0.02   -2.16    0.45   -0.11   -0.25    0.00    0.00      -2.05   -0.17   -0.40
#   6   -1.82   -2.59    0.94   -0.68   -0.26    0.00    0.00      -4.42   -1.18   -0.45
#   7   -1.34   -2.19    0.84   -0.48   -0.20    0.00    0.00      -3.36   -0.91   -0.39
#   8   -0.66   -1.92    0.59   -0.23   -0.19    0.00    0.00      -2.41   -0.44   -0.37
#   9   -0.33   -3.03    2.50   -0.29   -0.24    0.00    0.00      -1.38   -0.51   -0.42
#  10   -0.72   -2.41    0.53   -0.47   -0.25    0.00    0.00      -3.31   -0.76   -0.40
#  11   -0.10   -4.29    2.26   -0.35   -0.30    0.00    0.00      -2.78   -0.53   -0.45
#  12    0.10   -4.61    3.03   -0.93   -0.29    0.00    0.00      -2.70   -1.37   -0.43
#  13    0.83   -1.78    0.49    0.94   -0.32    0.00    0.00       0.16    2.00   -0.68
#  14   -0.55   -1.87    0.48   -1.28   -0.21    0.00    0.00      -3.43   -2.51   -0.41
#  15    2.41   -2.94    0.88    1.64   -0.37    0.00    0.00       1.62    2.66   -0.60
#  16   -5.57   -6.56    8.06   -3.98    1.26    0.00    0.00      -6.78   -6.19    1.96
#  17   -2.10   -3.94    1.87   -0.01    0.29    0.00    0.00      -3.90   -0.02    0.44
#  18   -0.52   -1.69    0.37    1.11   -1.03    0.00    0.00      -1.77    2.46   -2.30
#  19    4.11   -2.16    0.99   -3.08    0.42    0.00    0.00       0.28   -6.89    0.93
#  20    0.57   -1.49    0.24   -1.33    0.49    0.00    0.00      -1.53   -3.32    1.22
#  21   -0.52   -1.75    0.37   -1.69    0.41    0.00    0.00      -3.19   -3.84    0.93
#  22    0.16   -2.01    1.60    0.86   -0.20    0.00    0.00       0.40    1.78   -0.42
#  23    0.89   -0.99    0.11   -0.95   -0.06    0.00    0.00      -1.00   -2.23   -0.15
#  24    1.46   -0.76    0.09   -1.32   -0.09    0.00    0.00      -0.62   -3.17   -0.21
#  25    0.14   -0.92    0.13    0.18   -0.18    0.00    0.00      -0.65    0.45   -0.43
#  26    6.26   -0.82    0.11   -3.42    0.18    0.00    0.00       2.31  -10.92    0.56
#  27   -9.32   -0.03    0.00    3.32    0.11    0.00    0.00      -5.91   16.21    0.56
#  28    0.60   -0.53    0.03   -0.57   -0.13    0.00    0.00      -0.59   -1.97   -0.44
#  29    0.06   -0.65    0.05    0.06   -0.13    0.00    0.00      -0.60    0.20   -0.42
#  30    1.10   -1.24    0.27   -1.37   -0.08    0.00    0.00      -1.32   -3.62   -0.21
#  31    0.53   -0.44    0.10    0.28   -0.13    0.00    0.00       0.33    0.57   -0.27
#  32    1.42   -0.46    0.10    0.62   -0.15    0.00    0.00       1.53    1.13   -0.28
#  33    0.57   -0.53    0.43    0.34   -0.12    0.00    0.00       0.70    0.78   -0.27
#  34    1.97   -0.47    0.10    0.56   -0.14    0.00    0.00       2.02    1.16   -0.28
#  35    2.27   -0.71    0.30    1.30   -0.15    0.00    0.00       3.00    2.37   -0.28
#  36    1.27   -0.47    0.22    1.07   -0.10    0.00    0.00       1.99    2.65   -0.25
#  37    0.93   -1.32    3.67    0.28   -0.14    0.00    0.00       3.43    0.57   -0.28
#  38    0.05   -2.07    5.22    0.84   -0.19    0.00    0.00       3.85    1.26   -0.28
#  39   -0.98   -1.38    0.97    0.91   -0.15    0.00    0.00      -0.63    1.34   -0.22
#  40    2.44   -0.12    0.02    2.64    0.37    0.00    0.00       5.34    4.24    0.59
#  41    3.92   -0.23    0.06    2.15    0.40    0.00    0.00       6.29    3.24    0.60
#  42   -4.38   -0.11    0.03    1.35    0.24    0.00    0.00      -2.87    3.29    0.58
#  43   -1.67   -0.02    0.00    1.04    0.15    0.00    0.00      -0.50    4.11    0.59
#  44    0.81   -1.00    1.66    0.96   -0.09    0.00    0.00       2.33    2.29   -0.21
#  45    0.14   -1.38    2.93    1.28   -0.15    0.00    0.00       2.82    2.40   -0.28
#  46   -1.09   -0.50    0.15    0.44   -0.10    0.00    0.00      -1.09    1.20   -0.28
#  47   -0.71   -0.26    0.08    0.54   -0.05    0.00    0.00      -0.40    2.55   -0.22
#  48   -1.04   -0.28    0.04    0.07   -0.08    0.00    0.00      -1.29    0.23   -0.26
#  49   -3.12   -0.53    0.20    1.78   -0.12    0.00    0.00      -1.79    4.24   -0.28
#  50   -3.10   -0.30    0.04    1.10   -0.09    0.00    0.00      -2.35    3.42   -0.28
#  51   -0.93   -0.10    0.00    0.39   -0.03    0.00    0.00      -0.67    3.89   -0.28
#  52   -0.99   -0.14    0.01    0.66   -0.04    0.00    0.00      -0.50    4.79   -0.28
#  53   -1.38   -0.27    0.05    0.85   -0.04    0.00    0.00      -0.79    3.10   -0.15
#  54   -1.04   -0.16    0.01    0.88   -0.04    0.00    0.00      -0.36    5.70   -0.28
#  55   -1.99   -0.27    0.06    0.86   -0.06    0.00    0.00      -1.40    3.88   -0.28
#  56   -0.49   -1.04    0.97    1.09   -0.12    0.00    0.00       0.42    2.57   -0.28
#  57   -0.67   -0.37    0.13    0.91   -0.06    0.00    0.00      -0.06    3.43   -0.22

@<TRIPOS>MOLECULE
             1505        98
   57    60     0     0     0



@<TRIPOS>ATOM
      1 C1         13.3133    15.5365    65.7078 C.3        1           0.0231
      2 O1         14.1874    14.8455    66.6026 O.3        1          -0.3127
      3 C2         15.5073    14.8238    66.2815 C.ar       1           0.1460
      4 C3         15.9403    15.4574    65.1386 C.ar       1          -0.1625
      5 C4         17.3042    15.4347    64.8081 C.ar       1           0.0015
      6 C5         17.7785    16.0733    63.6469 C.ar       1          -0.1063
      7 C6         19.1011    16.0400    63.3455 C.ar       1          -0.0937
      8 C7         20.0144    15.3717    64.1816 C.ar       1          -0.0763
      9 C8         19.5784    14.7333    65.3315 C.ar       1          -0.0415
     10 C9         18.2148    14.7575    65.6596 C.ar       1          -0.0875
     11 C10        17.7375    14.1214    66.8198 C.ar       1          -0.0572
     12 C11        16.4117    14.1631    67.1187 C.ar       1          -0.1873
     13 C12        21.4483    15.3502    63.8310 C.2        1           0.2019
     14 C13        22.2239    14.2164    63.5827 C.2        1          -0.3100
     15 C14        21.7687    12.8204    63.6209 C.2        1           0.6022
     16 N1         21.8359    12.1208    64.7708 N.am       1          -0.8443
     17 O2         21.3311    12.2956    62.6142 O.2        1          -0.5371
     18 C15        23.5332    14.6685    63.2864 C.2        1           0.3850
     19 N2         24.6277    13.8610    62.9764 N.pl3      1          -0.8361
     20 N3         23.5375    15.9766    63.3532 N.2        1          -0.3520
     21 N4         22.2543    16.4245    63.6846 N.pl3      1          -0.3564
     22 C16        21.8527    17.8238    63.8484 C.3        1           0.1401
     23 C17        22.4218    18.6558    62.6974 C.3        1          -0.1198
     24 C18        22.3212    17.8609    61.3923 C.3        1          -0.1413
     25 C19        22.9636    18.6658    60.2605 C.3        1          -0.0070
     26 N5         24.3752    18.9173    60.5743 N.4        1          -0.3818
     27 H1         24.8092    19.4013    59.8027 H          1           0.4287
     28 C20        25.0616    17.6377    60.7961 C.3        1          -0.0581
     29 C21        24.4772    19.7402    61.7855 C.3        1          -0.0053
     30 C22        23.8929    18.9768    62.9761 C.3        1          -0.1422
     31 H2         12.2908    15.4775    66.0807 H          1           0.0599
     32 H3         13.6155    16.5815    65.6393 H          1           0.1064
     33 H4         13.3671    15.0773    64.7207 H          1           0.0582
     34 H5         15.2349    15.9684    64.5001 H          1           0.1395
     35 H6         17.0894    16.5899    62.9953 H          1           0.1354
     36 H7         19.4572    16.5321    62.4525 H          1           0.1245
     37 H8         20.2828    14.2209    65.9700 H          1           0.1365
     38 H9         18.4234    13.6036    67.4738 H          1           0.1358
     39 H10        16.0518    13.6761    68.0129 H          1           0.1362
     40 H11        22.1849    12.5392    65.5734 H          1           0.4032
     41 H12        21.5353    11.1989    64.7959 H          1           0.4054
     42 H13        24.5268    12.8967    62.9505 H          1           0.4137
     43 H14        25.4894    14.2640    62.7869 H          1           0.4090
     44 H15        20.7649    17.8926    63.8434 H          1           0.1034
     45 H16        22.2364    18.2034    64.7955 H          1           0.1050
     46 H17        21.8575    19.5839    62.6047 H          1           0.0973
     47 H18        22.8422    16.9102    61.5042 H          1           0.0935
     48 H19        21.2727    17.6768    61.1582 H          1           0.1147
     49 H20        22.8936    18.1027    59.3298 H          1           0.1320
     50 H21        22.4416    19.6161    60.1494 H          1           0.1285
     51 H22        26.1101    17.8234    61.0292 H          1           0.1239
     52 H23        24.5920    17.1127    61.6280 H          1           0.1244
     53 H24        24.9922    17.0272    59.8957 H          1           0.1263
     54 H25        25.5246    19.9704    61.9807 H          1           0.1340
     55 H26        23.9229    20.6677    61.6419 H          1           0.1299
     56 H27        23.9680    19.5901    63.8740 H          1           0.1163
     57 H28        24.4467    18.0492    63.1208 H          1           0.0949
@<TRIPOS>BOND
     1    1    2 1
     2    1   31 1
     3    1   32 1
     4    1   33 1
     5    2    3 1
     6    3   12 ar
     7    3    4 ar
     8    4    5 ar
     9    4   34 1
    10    5   10 ar
    11    5    6 ar
    12    6    7 ar
    13    6   35 1
    14    7    8 ar
    15    7   36 1
    16    8    9 ar
    17    8   13 1
    18    9   10 ar
    19    9   37 1
    20   10   11 ar
    21   11   12 ar
    22   11   38 1
    23   12   39 1
    24   13   21 1
    25   13   14 2
    26   14   15 1
    27   14   18 1
    28   15   16 am
    29   15   17 2
    30   16   40 1
    31   16   41 1
    32   18   19 1
    33   18   20 2
    34   19   42 1
    35   19   43 1
    36   20   21 1
    37   21   22 1
    38   22   23 1
    39   22   44 1
    40   22   45 1
    41   23   30 1
    42   23   24 1
    43   23   46 1
    44   24   25 1
    45   24   47 1
    46   24   48 1
    47   25   26 1
    48   25   49 1
    49   25   50 1
    50   26   27 1
    51   26   28 1
    52   26   29 1
    53   28   51 1
    54   28   52 1
    55   28   53 1
    56   29   30 1
    57   29   54 1
    58   29   55 1
    59   30   56 1
    60   30   57 1
##########                 Name:                 1505
##########          Protonation:                   98
##########               SMILES:   C[NH+]1CC[C@@H](CC1)Cn2nc(c(c2c3cc4c(cc(cc4)OC)cc3)C(=O)N)N
##########            Long Name:   y-2-naphthyl)-1-[(1-methylpiperidin-1-ium-4-yl)methyl]pyrazole-4-carboxamide
##########          FlexRecCode: 1
##########               Number:                   61
##########   Ligand Source File: /raid1/people/rgc/Examples/tdt/part3/ligand22set/build/ligand22set-0000001.db2.g
##########           GlobalRank: 16
##########                 Rank:                    1
##########               Setnum:                  131
##########             Matchnum:                45349
##########                Cloud:                    1
##########        Electrostatic:           -26.009241
##########        Van der Waals:           -17.331535
##########  Ligand Polar Desolv:            11.865890
########## Ligand Apolar Desolv:            -2.582066
##########      Internal Energy:             0.000000
##########      Receptor Energy: 0.0
########## Receptor Desolvation:             0.000000
########## Receptor Hydrophobic:             0.000000
##########         Total Energy: -34.06
##########        Ligand Charge:             1.000000
##########            Arbitrary:    +999.9990
##########     heavy atom count:   29
##########           pose count:   10
##########        Ligand Energy:             0.000000
# num electro vdwattr vdwrepu polsolv apolsol rdesolv rhydroe totalscore fullpol fullapo
#   1    0.25   -1.81    0.47    0.05    0.02    0.00    0.00      -1.01    0.08    0.03
#   2   -4.25   -1.92    0.34   -1.15    0.60    0.00    0.00      -6.39   -1.78    0.92
#   3    2.27   -2.53    0.72    0.32   -0.20    0.00    0.00       0.58    0.51   -0.31
#   4   -2.69   -2.91    0.90   -0.72   -0.27    0.00    0.00      -5.68   -1.22   -0.45
#   5    0.02   -2.41    0.71   -0.10   -0.23    0.00    0.00      -2.00   -0.17   -0.40
#   6   -1.25   -3.61    3.07   -0.65   -0.25    0.00    0.00      -2.69   -1.18   -0.45
#   7   -0.57   -2.37    1.08   -0.44   -0.19    0.00    0.00      -2.48   -0.91   -0.39
#   8   -0.46   -1.63    0.35   -0.21   -0.17    0.00    0.00      -2.11   -0.44   -0.37
#   9   -0.37   -2.59    2.02   -0.26   -0.22    0.00    0.00      -1.42   -0.51   -0.42
#  10   -1.12   -2.11    0.51   -0.44   -0.23    0.00    0.00      -3.40   -0.76   -0.40
#  11   -0.59   -2.67    0.66   -0.33   -0.28    0.00    0.00      -3.21   -0.53   -0.45
#  12   -2.15   -2.75    0.80   -0.90   -0.28    0.00    0.00      -5.28   -1.37   -0.43
#  13    0.18   -1.61    0.59    0.86   -0.29    0.00    0.00      -0.27    2.00   -0.68
#  14    0.02   -1.84    0.54   -1.20   -0.20    0.00    0.00      -2.67   -2.51   -0.41
#  15    1.65   -2.82    0.88    1.56   -0.35    0.00    0.00       0.91    2.66   -0.60
#  16   -4.34   -6.09    6.73   -3.92    1.24    0.00    0.00      -6.39   -6.19    1.96
#  17   -2.69   -4.54    4.28   -0.01    0.26    0.00    0.00      -2.70   -0.02    0.44
#  18   -1.13   -1.51    0.26    1.05   -0.98    0.00    0.00      -2.31    2.46   -2.30
#  19    3.91   -1.94    0.72   -2.97    0.40    0.00    0.00       0.13   -6.89    0.93
#  20    1.42   -1.12    0.11   -1.18    0.43    0.00    0.00      -0.33   -3.32    1.22
#  21    1.06   -1.20    0.16   -1.50    0.36    0.00    0.00      -1.12   -3.84    0.93
#  22   -0.89   -0.74    0.05    0.72   -0.17    0.00    0.00      -1.02    1.78   -0.42
#  23    1.57   -0.85    0.12   -0.95   -0.06    0.00    0.00      -0.19   -2.23   -0.15
#  24    2.57   -1.05    0.24   -1.20   -0.08    0.00    0.00       0.47   -3.17   -0.21
#  25    0.13   -0.73    0.13    0.15   -0.14    0.00    0.00      -0.46    0.45   -0.43
#  26    9.30   -1.47    0.47   -4.07    0.21    0.00    0.00       4.44  -10.92    0.56
#  27  -14.13   -0.07    0.00    6.16    0.21    0.00    0.00      -7.82   16.21    0.56
#  28    1.01   -0.88    0.17   -0.63   -0.14    0.00    0.00      -0.47   -1.97   -0.44
#  29    0.12   -1.47    0.57    0.09   -0.18    0.00    0.00      -0.87    0.20   -0.42
#  30    2.62   -1.05    0.13   -1.84   -0.11    0.00    0.00      -0.25   -3.62   -0.21
#  31    0.62   -0.53    0.15    0.33   -0.16    0.00    0.00       0.42    0.57   -0.27
#  32    0.67   -0.60    0.14    0.61   -0.15    0.00    0.00       0.67    1.13   -0.28
#  33    0.80   -1.14    2.34    0.45   -0.16    0.00    0.00       2.30    0.78   -0.27
#  34    1.42   -0.92    0.70    0.68   -0.16    0.00    0.00       1.71    1.16   -0.28
#  35    0.94   -2.27   16.98    1.33   -0.16    0.00    0.00      16.82    2.37   -0.28
#  36   -0.10   -0.70    0.84    1.15   -0.11    0.00    0.00       1.09    2.65   -0.25
#  37    1.04   -1.27    5.10    0.25   -0.12    0.00    0.00       5.00    0.57   -0.28
#  38    1.01   -0.82    0.46    0.74   -0.17    0.00    0.00       1.22    1.26   -0.28
#  39    1.04   -0.73    0.35    0.79   -0.13    0.00    0.00       1.32    1.34   -0.22
#  40    0.38   -0.09    0.01    2.49    0.35    0.00    0.00       3.14    4.24    0.59
#  41    5.65   -0.28    0.17    2.10    0.39    0.00    0.00       8.01    3.24    0.60
#  42   -3.07   -0.07    0.01    1.26    0.22    0.00    0.00      -1.65    3.29    0.58
#  43   -1.39   -0.02    0.00    0.94    0.13    0.00    0.00      -0.34    4.11    0.59
#  44   -0.27   -0.34    0.07    0.78   -0.07    0.00    0.00       0.17    2.29   -0.21
#  45   -0.85   -0.21    0.01    0.63   -0.07    0.00    0.00      -0.49    2.40   -0.28
#  46   -1.02   -0.50    0.35    0.42   -0.10    0.00    0.00      -0.85    1.20   -0.28
#  47   -1.20   -0.27    0.06    0.67   -0.06    0.00    0.00      -0.80    2.55   -0.22
#  48   -3.00   -0.71    0.44    0.10   -0.11    0.00    0.00      -3.28    0.23   -0.26
#  49   -1.62   -0.14    0.01    0.56   -0.04    0.00    0.00      -1.23    4.24   -0.28
#  50   -2.46   -0.28    0.12    0.61   -0.05    0.00    0.00      -2.06    3.42   -0.28
#  51   -2.55   -0.37    0.11    1.12   -0.08    0.00    0.00      -1.77    3.89   -0.28
#  52   -1.52   -0.30    0.11    1.00   -0.06    0.00    0.00      -0.76    4.79   -0.28
#  53   -1.70   -0.19    0.03    0.57   -0.03    0.00    0.00      -1.32    3.10   -0.15
#  54   -2.43   -0.72    0.81    1.97   -0.10    0.00    0.00      -0.47    5.70   -0.28
#  55   -3.68   -0.74    0.51    1.65   -0.12    0.00    0.00      -2.39    3.88   -0.28
#  56   -2.87   -0.51    0.19    1.10   -0.12    0.00    0.00      -2.21    2.57   -0.28
#  57   -1.29   -0.47    0.29    1.28   -0.08    0.00    0.00      -0.27    3.43   -0.22

@<TRIPOS>MOLECULE
             1505        98
   57    60     0     0     0



@<TRIPOS>ATOM
      1 C1         14.1184    15.6954    66.6636 C.3        1           0.0231
      2 O1         14.6100    15.9619    65.3486 O.3        1          -0.3127
      3 C2         15.9483    15.8340    65.1527 C.ar       1           0.1460
      4 C3         16.4809    16.0834    63.9081 C.ar       1          -0.1625
      5 C4         17.8637    15.9515    63.7071 C.ar       1           0.0015
      6 C5         18.4391    16.1997    62.4466 C.ar       1          -0.1063
      7 C6         19.7782    16.0668    62.2733 C.ar       1          -0.0937
      8 C7         20.6089    15.6817    63.3418 C.ar       1          -0.0763
      9 C8         20.0725    15.4299    64.5943 C.ar       1          -0.0415
     10 C9         18.6902    15.5625    64.7925 C.ar       1          -0.0875
     11 C10        18.1121    15.3163    66.0511 C.ar       1          -0.0572
     12 C11        16.7701    15.4563    66.2192 C.ar       1          -0.1873
     13 C12        22.0630    15.5443    63.1266 C.2        1           0.2019
     14 C13        22.8199    14.3840    63.2976 C.2        1          -0.3100
     15 C14        22.3216    13.0701    63.7253 C.2        1           0.6022
     16 N1         21.9007    12.1776    62.8073 N.am       1          -0.8443
     17 O2         22.2889    12.7875    64.9082 O.2        1          -0.5371
     18 C15        24.1602    14.7147    62.9795 C.2        1           0.3850
     19 N2         25.2493    13.8440    63.0168 N.pl3      1          -0.8361
     20 N3         24.1987    15.9800    62.6434 N.2        1          -0.3520
     21 N4         22.9093    16.5164    62.7217 N.pl3      1          -0.3564
     22 C16        22.5390    17.9011    62.4184 C.3        1           0.1401
     23 C17        22.1714    18.0181    60.9379 C.3        1          -0.1198
     24 C18        23.4477    18.1234    60.0988 C.3        1          -0.1413
     25 C19        24.2058    19.3913    60.4973 C.3        1          -0.0070
     26 N5         23.3630    20.5692    60.2573 N.4        1          -0.3818
     27 H1         23.0940    20.5954    59.2851 H          1           0.4287
     28 C20        24.1200    21.7846    60.5858 C.3        1          -0.0581
     29 C21        22.1582    20.5070    61.0937 C.3        1          -0.0053
     30 C22        21.3295    19.2776    60.7159 C.3        1          -0.1422
     31 H2         13.0374    15.8338    66.6824 H          1           0.0599
     32 H3         14.3581    14.6685    66.9399 H          1           0.1064
     33 H4         14.5847    16.3805    67.3717 H          1           0.0582
     34 H5         15.8388    16.3782    63.0913 H          1           0.1395
     35 H6         17.8143    16.4957    61.6169 H          1           0.1354
     36 H7         20.2122    16.2588    61.3031 H          1           0.1245
     37 H8         20.7136    15.1338    65.4113 H          1           0.1365
     38 H9         18.7335    15.0198    66.8831 H          1           0.1358
     39 H10        16.3325    15.2698    67.1888 H          1           0.1362
     40 H11        21.9267    12.4029    61.8642 H          1           0.4032
     41 H12        21.5715    11.3099    63.0897 H          1           0.4054
     42 H13        25.1218    12.9189    63.2792 H          1           0.4137
     43 H14        26.1341    14.1636    62.7806 H          1           0.4090
     44 H15        21.6838    18.1905    63.0291 H          1           0.1034
     45 H16        23.3806    18.5584    62.6370 H          1           0.1050
     46 H17        21.6030    17.1398    60.6319 H          1           0.0973
     47 H18        24.0757    17.2511    60.2796 H          1           0.0935
     48 H19        23.1860    18.1721    59.0418 H          1           0.1147
     49 H20        24.4657    19.3410    61.5546 H          1           0.1320
     50 H21        25.1167    19.4705    59.9040 H          1           0.1285
     51 H22        23.4958    22.6604    60.4082 H          1           0.1239
     52 H23        24.4159    21.7559    61.6345 H          1           0.1244
     53 H24        25.0096    21.8391    59.9585 H          1           0.1263
     54 H25        22.4482    20.4402    62.1424 H          1           0.1340
     55 H26        21.5628    21.4068    60.9394 H          1           0.1299
     56 H27        21.0393    19.3418    59.6672 H          1           0.1163
     57 H28        20.4368    19.2338    61.3398 H          1           0.0949
@<TRIPOS>BOND
     1    1    2 1
     2    1   31 1
     3    1   32 1
     4    1   33 1
     5    2    3 1
     6    3   12 ar
     7    3    4 ar
     8    4    5 ar
     9    4   34 1
    10    5   10 ar
    11    5    6 ar
    12    6    7 ar
    13    6   35 1
    14    7    8 ar
    15    7   36 1
    16    8    9 ar
    17    8   13 1
    18    9   10 ar
    19    9   37 1
    20   10   11 ar
    21   11   12 ar
    22   11   38 1
    23   12   39 1
    24   13   21 1
    25   13   14 2
    26   14   15 1
    27   14   18 1
    28   15   16 am
    29   15   17 2
    30   16   40 1
    31   16   41 1
    32   18   19 1
    33   18   20 2
    34   19   42 1
    35   19   43 1
    36   20   21 1
    37   21   22 1
    38   22   23 1
    39   22   44 1
    40   22   45 1
    41   23   30 1
    42   23   24 1
    43   23   46 1
    44   24   25 1
    45   24   47 1
    46   24   48 1
    47   25   26 1
    48   25   49 1
    49   25   50 1
    50   26   27 1
    51   26   28 1
    52   26   29 1
    53   28   51 1
    54   28   52 1
    55   28   53 1
    56   29   30 1
    57   29   54 1
    58   29   55 1
    59   30   56 1
    60   30   57 1
##########                 Name:                 1505
##########          Protonation:                   98
##########               SMILES:   C[NH+]1CC[C@@H](CC1)Cn2nc(c(c2c3cc4c(cc(cc4)OC)cc3)C(=O)N)N
##########            Long Name:   y-2-naphthyl)-1-[(1-methylpiperidin-1-ium-4-yl)methyl]pyrazole-4-carboxamide
##########          FlexRecCode: 1
##########               Number:                   61
##########   Ligand Source File: /raid1/people/rgc/Examples/tdt/part3/ligand22set/build/ligand22set-0000001.db2.g
##########           GlobalRank: 17
##########                 Rank:                    2
##########               Setnum:                  150
##########             Matchnum:                45349
##########                Cloud:                    1
##########        Electrostatic:           -26.941698
##########        Van der Waals:           -15.841553
##########  Ligand Polar Desolv:            12.014551
########## Ligand Apolar Desolv:            -2.634374
##########      Internal Energy:             0.000000
##########      Receptor Energy: 0.0
########## Receptor Desolvation:             0.000000
########## Receptor Hydrophobic:             0.000000
##########         Total Energy: -33.4
##########        Ligand Charge:             1.000000
##########            Arbitrary:    +999.9990
##########     heavy atom count:   29
##########           pose count:   10
##########        Ligand Energy:             0.000000
# num electro vdwattr vdwrepu polsolv apolsol rdesolv rhydroe totalscore fullpol fullapo
#   1    0.25   -1.81    0.47    0.05    0.02    0.00    0.00      -1.01    0.08    0.03
#   2   -4.25   -1.92    0.34   -1.15    0.60    0.00    0.00      -6.39   -1.78    0.92
#   3    2.27   -2.53    0.72    0.32   -0.20    0.00    0.00       0.58    0.51   -0.31
#   4   -2.69   -2.91    0.90   -0.72   -0.27    0.00    0.00      -5.68   -1.22   -0.45
#   5    0.02   -2.41    0.71   -0.10   -0.23    0.00    0.00      -2.00   -0.17   -0.40
#   6   -1.25   -3.61    3.07   -0.65   -0.25    0.00    0.00      -2.69   -1.18   -0.45
#   7   -0.57   -2.37    1.08   -0.44   -0.19    0.00    0.00      -2.48   -0.91   -0.39
#   8   -0.46   -1.63    0.35   -0.21   -0.17    0.00    0.00      -2.11   -0.44   -0.37
#   9   -0.37   -2.59    2.02   -0.26   -0.22    0.00    0.00      -1.42   -0.51   -0.42
#  10   -1.12   -2.11    0.51   -0.44   -0.23    0.00    0.00      -3.40   -0.76   -0.40
#  11   -0.59   -2.67    0.66   -0.33   -0.28    0.00    0.00      -3.21   -0.53   -0.45
#  12   -2.15   -2.75    0.80   -0.90   -0.28    0.00    0.00      -5.28   -1.37   -0.43
#  13    0.18   -1.61    0.59    0.86   -0.29    0.00    0.00      -0.27    2.00   -0.68
#  14    0.02   -1.84    0.54   -1.20   -0.20    0.00    0.00      -2.67   -2.51   -0.41
#  15    1.65   -2.82    0.88    1.56   -0.35    0.00    0.00       0.91    2.66   -0.60
#  16   -4.38   -5.96    9.23   -3.74    1.18    0.00    0.00      -3.66   -6.19    1.96
#  17   -2.60   -4.69    3.25   -0.01    0.28    0.00    0.00      -3.78   -0.02    0.44
#  18   -1.13   -1.51    0.26    1.05   -0.98    0.00    0.00      -2.31    2.46   -2.30
#  19    3.91   -1.94    0.72   -2.97    0.40    0.00    0.00       0.13   -6.89    0.93
#  20    1.42   -1.12    0.11   -1.18    0.43    0.00    0.00      -0.33   -3.32    1.22
#  21    1.06   -1.20    0.16   -1.50    0.36    0.00    0.00      -1.12   -3.84    0.93
#  22   -0.89   -0.74    0.05    0.72   -0.17    0.00    0.00      -1.02    1.78   -0.42
#  23    1.57   -0.85    0.12   -0.95   -0.06    0.00    0.00      -0.19   -2.23   -0.15
#  24    2.57   -1.05    0.24   -1.20   -0.08    0.00    0.00       0.47   -3.17   -0.21
#  25    0.13   -0.73    0.13    0.15   -0.14    0.00    0.00      -0.46    0.45   -0.43
#  26    9.30   -1.47    0.47   -4.07    0.21    0.00    0.00       4.44  -10.92    0.56
#  27  -14.13   -0.07    0.00    6.16    0.21    0.00    0.00      -7.82   16.21    0.56
#  28    1.01   -0.88    0.17   -0.63   -0.14    0.00    0.00      -0.47   -1.97   -0.44
#  29    0.12   -1.47    0.57    0.09   -0.18    0.00    0.00      -0.87    0.20   -0.42
#  30    2.62   -1.05    0.13   -1.84   -0.11    0.00    0.00      -0.25   -3.62   -0.21
#  31    0.62   -0.53    0.15    0.33   -0.16    0.00    0.00       0.42    0.57   -0.27
#  32    0.67   -0.60    0.14    0.61   -0.15    0.00    0.00       0.67    1.13   -0.28
#  33    0.80   -1.14    2.34    0.45   -0.16    0.00    0.00       2.30    0.78   -0.27
#  34    1.42   -0.92    0.70    0.68   -0.16    0.00    0.00       1.71    1.16   -0.28
#  35    0.94   -2.27   16.98    1.33   -0.16    0.00    0.00      16.82    2.37   -0.28
#  36   -0.10   -0.70    0.84    1.15   -0.11    0.00    0.00       1.09    2.65   -0.25
#  37    1.04   -1.27    5.10    0.25   -0.12    0.00    0.00       5.00    0.57   -0.28
#  38    1.01   -0.82    0.46    0.74   -0.17    0.00    0.00       1.22    1.26   -0.28
#  39    1.04   -0.73    0.35    0.79   -0.13    0.00    0.00       1.32    1.34   -0.22
#  40    2.07   -0.26    0.24    2.47    0.34    0.00    0.00       4.86    4.24    0.59
#  41    2.96   -0.14    0.02    2.08    0.39    0.00    0.00       5.30    3.24    0.60
#  42   -3.07   -0.07    0.01    1.26    0.22    0.00    0.00      -1.65    3.29    0.58
#  43   -1.39   -0.02    0.00    0.94    0.13    0.00    0.00      -0.34    4.11    0.59
#  44   -0.27   -0.34    0.07    0.78   -0.07    0.00    0.00       0.17    2.29   -0.21
#  45   -0.85   -0.21    0.01    0.63   -0.07    0.00    0.00      -0.49    2.40   -0.28
#  46   -1.02   -0.50    0.35    0.42   -0.10    0.00    0.00      -0.85    1.20   -0.28
#  47   -1.20   -0.27    0.06    0.67   -0.06    0.00    0.00      -0.80    2.55   -0.22
#  48   -3.00   -0.71    0.44    0.10   -0.11    0.00    0.00      -3.28    0.23   -0.26
#  49   -1.62   -0.14    0.01    0.56   -0.04    0.00    0.00      -1.23    4.24   -0.28
#  50   -2.46   -0.28    0.12    0.61   -0.05    0.00    0.00      -2.06    3.42   -0.28
#  51   -2.55   -0.37    0.11    1.12   -0.08    0.00    0.00      -1.77    3.89   -0.28
#  52   -1.52   -0.30    0.11    1.00   -0.06    0.00    0.00      -0.76    4.79   -0.28
#  53   -1.70   -0.19    0.03    0.57   -0.03    0.00    0.00      -1.32    3.10   -0.15
#  54   -2.43   -0.72    0.81    1.97   -0.10    0.00    0.00      -0.47    5.70   -0.28
#  55   -3.68   -0.74    0.51    1.65   -0.12    0.00    0.00      -2.39    3.88   -0.28
#  56   -2.87   -0.51    0.19    1.10   -0.12    0.00    0.00      -2.21    2.57   -0.28
#  57   -1.29   -0.47    0.29    1.28   -0.08    0.00    0.00      -0.27    3.43   -0.22

@<TRIPOS>MOLECULE
             1505        98
   57    60     0     0     0



@<TRIPOS>ATOM
      1 C1         14.1184    15.6954    66.6636 C.3        1           0.0231
      2 O1         14.6100    15.9619    65.3486 O.3        1          -0.3127
      3 C2         15.9483    15.8340    65.1527 C.ar       1           0.1460
      4 C3         16.4809    16.0834    63.9081 C.ar       1          -0.1625
      5 C4         17.8637    15.9515    63.7071 C.ar       1           0.0015
      6 C5         18.4391    16.1997    62.4466 C.ar       1          -0.1063
      7 C6         19.7782    16.0668    62.2733 C.ar       1          -0.0937
      8 C7         20.6089    15.6817    63.3418 C.ar       1          -0.0763
      9 C8         20.0725    15.4299    64.5943 C.ar       1          -0.0415
     10 C9         18.6902    15.5625    64.7925 C.ar       1          -0.0875
     11 C10        18.1121    15.3163    66.0511 C.ar       1          -0.0572
     12 C11        16.7701    15.4563    66.2192 C.ar       1          -0.1873
     13 C12        22.0630    15.5443    63.1266 C.2        1           0.2019
     14 C13        22.8199    14.3840    63.2976 C.2        1          -0.3100
     15 C14        22.3216    13.0701    63.7253 C.2        1           0.6022
     16 N1         22.2853    12.7570    65.0356 N.am       1          -0.8443
     17 O2         21.9416    12.2645    62.8964 O.2        1          -0.5371
     18 C15        24.1602    14.7147    62.9795 C.2        1           0.3850
     19 N2         25.2493    13.8440    63.0168 N.pl3      1          -0.8361
     20 N3         24.1987    15.9800    62.6434 N.2        1          -0.3520
     21 N4         22.9093    16.5164    62.7217 N.pl3      1          -0.3564
     22 C16        22.5390    17.9011    62.4184 C.3        1           0.1401
     23 C17        22.1714    18.0181    60.9379 C.3        1          -0.1198
     24 C18        23.4477    18.1234    60.0988 C.3        1          -0.1413
     25 C19        24.2058    19.3913    60.4973 C.3        1          -0.0070
     26 N5         23.3630    20.5692    60.2573 N.4        1          -0.3818
     27 H1         23.0940    20.5954    59.2851 H          1           0.4287
     28 C20        24.1200    21.7846    60.5858 C.3        1          -0.0581
     29 C21        22.1582    20.5070    61.0937 C.3        1          -0.0053
     30 C22        21.3295    19.2776    60.7159 C.3        1          -0.1422
     31 H2         13.0374    15.8338    66.6824 H          1           0.0599
     32 H3         14.3581    14.6685    66.9399 H          1           0.1064
     33 H4         14.5847    16.3805    67.3717 H          1           0.0582
     34 H5         15.8388    16.3782    63.0913 H          1           0.1395
     35 H6         17.8143    16.4957    61.6169 H          1           0.1354
     36 H7         20.2122    16.2588    61.3031 H          1           0.1245
     37 H8         20.7136    15.1338    65.4113 H          1           0.1365
     38 H9         18.7335    15.0198    66.8831 H          1           0.1358
     39 H10        16.3325    15.2698    67.1888 H          1           0.1362
     40 H11        22.5883    13.3992    65.6963 H          1           0.4032
     41 H12        21.9563    11.8892    65.3180 H          1           0.4054
     42 H13        25.1218    12.9189    63.2792 H          1           0.4137
     43 H14        26.1341    14.1636    62.7806 H          1           0.4090
     44 H15        21.6838    18.1905    63.0291 H          1           0.1034
     45 H16        23.3806    18.5584    62.6370 H          1           0.1050
     46 H17        21.6030    17.1398    60.6319 H          1           0.0973
     47 H18        24.0757    17.2511    60.2796 H          1           0.0935
     48 H19        23.1860    18.1721    59.0418 H          1           0.1147
     49 H20        24.4657    19.3410    61.5546 H          1           0.1320
     50 H21        25.1167    19.4705    59.9040 H          1           0.1285
     51 H22        23.4958    22.6604    60.4082 H          1           0.1239
     52 H23        24.4159    21.7559    61.6345 H          1           0.1244
     53 H24        25.0096    21.8391    59.9585 H          1           0.1263
     54 H25        22.4482    20.4402    62.1424 H          1           0.1340
     55 H26        21.5628    21.4068    60.9394 H          1           0.1299
     56 H27        21.0393    19.3418    59.6672 H          1           0.1163
     57 H28        20.4368    19.2338    61.3398 H          1           0.0949
@<TRIPOS>BOND
     1    1    2 1
     2    1   31 1
     3    1   32 1
     4    1   33 1
     5    2    3 1
     6    3   12 ar
     7    3    4 ar
     8    4    5 ar
     9    4   34 1
    10    5   10 ar
    11    5    6 ar
    12    6    7 ar
    13    6   35 1
    14    7    8 ar
    15    7   36 1
    16    8    9 ar
    17    8   13 1
    18    9   10 ar
    19    9   37 1
    20   10   11 ar
    21   11   12 ar
    22   11   38 1
    23   12   39 1
    24   13   21 1
    25   13   14 2
    26   14   15 1
    27   14   18 1
    28   15   16 am
    29   15   17 2
    30   16   40 1
    31   16   41 1
    32   18   19 1
    33   18   20 2
    34   19   42 1
    35   19   43 1
    36   20   21 1
    37   21   22 1
    38   22   23 1
    39   22   44 1
    40   22   45 1
    41   23   30 1
    42   23   24 1
    43   23   46 1
    44   24   25 1
    45   24   47 1
    46   24   48 1
    47   25   26 1
    48   25   49 1
    49   25   50 1
    50   26   27 1
    51   26   28 1
    52   26   29 1
    53   28   51 1
    54   28   52 1
    55   28   53 1
    56   29   30 1
    57   29   54 1
    58   29   55 1
    59   30   56 1
    60   30   57 1
##########                 Name:                 1505
##########          Protonation:                   98
##########               SMILES:   C[NH+]1CC[C@@H](CC1)Cn2nc(c(c2c3cc4c(cc(cc4)OC)cc3)C(=O)N)N
##########            Long Name:   y-2-naphthyl)-1-[(1-methylpiperidin-1-ium-4-yl)methyl]pyrazole-4-carboxamide
##########          FlexRecCode: 1
##########               Number:                   62
##########   Ligand Source File: /raid1/people/rgc/Examples/tdt/part3/ligand22set/build/ligand22set-0000001.db2.g
##########           GlobalRank: 19
##########                 Rank:                    1
##########               Setnum:                    8
##########             Matchnum:                16226
##########                Cloud:                    1
##########        Electrostatic:           -25.697903
##########        Van der Waals:           -15.228152
##########  Ligand Polar Desolv:             9.182963
########## Ligand Apolar Desolv:            -0.836135
##########      Internal Energy:             0.000000
##########      Receptor Energy: 0.0
########## Receptor Desolvation:             0.000000
########## Receptor Hydrophobic:             0.000000
##########         Total Energy: -32.58
##########        Ligand Charge:             1.000000
##########            Arbitrary:    +999.9990
##########     heavy atom count:   29
##########           pose count:   10
##########        Ligand Energy:             0.000000
# num electro vdwattr vdwrepu polsolv apolsol rdesolv rhydroe totalscore fullpol fullapo
#   1    0.02   -0.11    0.00    0.01    0.00    0.00    0.00      -0.08    0.08    0.03
#   2   -0.30   -0.11    0.00   -0.10    0.05    0.00    0.00      -0.45   -1.78    0.92
#   3    0.15   -0.21    0.00    0.04   -0.03    0.00    0.00      -0.04    0.51   -0.31
#   4   -0.15   -0.44    0.03   -0.17   -0.06    0.00    0.00      -0.80   -1.22   -0.45
#   5    0.00   -0.58    0.04   -0.03   -0.08    0.00    0.00      -0.65   -0.17   -0.40
#   6    0.06   -1.33    0.32   -0.33   -0.13    0.00    0.00      -1.41   -1.18   -0.45
#   7    0.21   -1.17    0.15   -0.31   -0.13    0.00    0.00      -1.26   -0.91   -0.39
#   8    0.23   -0.93    0.07   -0.15   -0.12    0.00    0.00      -0.89   -0.44   -0.37
#   9    0.07   -1.39    0.42   -0.14   -0.12    0.00    0.00      -1.17   -0.51   -0.42
#  10    0.01   -0.63    0.06   -0.16   -0.08    0.00    0.00      -0.80   -0.76   -0.40
#  11   -0.05   -0.64    0.08   -0.11   -0.10    0.00    0.00      -0.82   -0.53   -0.45
#  12   -0.22   -0.30    0.01   -0.18   -0.06    0.00    0.00      -0.74   -1.37   -0.43
#  13   -0.77   -1.16    0.14    0.72   -0.24    0.00    0.00      -1.32    2.00   -0.68
#  14    0.62   -1.63    0.33   -1.09   -0.18    0.00    0.00      -1.96   -2.51   -0.41
#  15   -1.39   -3.18    2.09    1.33   -0.30    0.00    0.00      -1.45    2.66   -0.60
#  16    5.11   -5.22   11.12   -2.90    0.92    0.00    0.00       9.03   -6.19    1.96
#  17   -1.28   -3.32    1.54   -0.01    0.25    0.00    0.00      -2.82   -0.02    0.44
#  18   -0.19   -1.48    0.31    1.03   -0.96    0.00    0.00      -1.29    2.46   -2.30
#  19   -2.86   -1.62    0.33   -3.22    0.43    0.00    0.00      -6.93   -6.89    0.93
#  20    1.35   -1.13    0.10   -1.28    0.47    0.00    0.00      -0.49   -3.32    1.22
#  21    2.06   -1.04    0.11   -1.20    0.29    0.00    0.00       0.21   -3.84    0.93
#  22   -1.13   -0.60    0.10    0.45   -0.11    0.00    0.00      -1.28    1.78   -0.42
#  23    1.28   -0.57    0.05   -0.65   -0.04    0.00    0.00       0.06   -2.23   -0.15
#  24    1.56   -0.63    0.12   -0.82   -0.05    0.00    0.00       0.17   -3.17   -0.21
#  25    0.10   -0.60    0.14    0.11   -0.10    0.00    0.00      -0.36    0.45   -0.43
#  26    9.80   -2.27    3.77   -3.63    0.19    0.00    0.00       7.86  -10.92    0.56
#  27  -19.93   -0.43    0.68    5.74    0.20    0.00    0.00     -13.73   16.21    0.56
#  28    1.28   -1.26    0.40   -0.68   -0.15    0.00    0.00      -0.41   -1.97   -0.44
#  29    0.11   -0.88    0.15    0.07   -0.16    0.00    0.00      -0.69    0.20   -0.42
#  30    2.50   -1.19    0.38   -1.35   -0.08    0.00    0.00       0.27   -3.62   -0.21
#  31    0.05   -0.02    0.00    0.01    0.00    0.00    0.00       0.04    0.57   -0.27
#  32    0.09   -0.06    0.00    0.08   -0.02    0.00    0.00       0.09    1.13   -0.28
#  33    0.06   -0.04    0.00    0.03   -0.01    0.00    0.00       0.04    0.78   -0.27
#  34    0.13   -0.12    0.02    0.13   -0.03    0.00    0.00       0.12    1.16   -0.28
#  35    0.07   -0.58    0.39    0.72   -0.08    0.00    0.00       0.51    2.37   -0.28
#  36   -0.25   -0.38    0.10    0.96   -0.09    0.00    0.00       0.33    2.65   -0.25
#  37   -0.17   -0.84    0.75    0.19   -0.10    0.00    0.00      -0.16    0.57   -0.28
#  38    0.13   -0.25    0.06    0.31   -0.07    0.00    0.00       0.19    1.26   -0.28
#  39    0.17   -0.06    0.00    0.09   -0.01    0.00    0.00       0.19    1.34   -0.22
#  40   -1.87   -0.03    0.00    1.49    0.21    0.00    0.00      -0.21    4.24    0.59
#  41   -2.27   -0.13    0.02    1.64    0.30    0.00    0.00      -0.43    3.24    0.60
#  42    1.67   -0.02    0.00    1.20    0.21    0.00    0.00       3.06    3.29    0.58
#  43    2.50   -0.02    0.00    1.29    0.19    0.00    0.00       3.96    4.11    0.59
#  44   -0.92   -0.20    0.03    0.39   -0.04    0.00    0.00      -0.74    2.29   -0.21
#  45   -0.71   -0.23    0.10    0.35   -0.04    0.00    0.00      -0.53    2.40   -0.28
#  46   -0.69   -0.19    0.01    0.26   -0.06    0.00    0.00      -0.66    1.20   -0.28
#  47   -0.49   -0.08    0.00    0.20   -0.02    0.00    0.00      -0.39    2.55   -0.22
#  48   -1.62   -0.48    0.29    0.06   -0.07    0.00    0.00      -1.82    0.23   -0.26
#  49   -1.21   -0.11    0.00    0.51   -0.03    0.00    0.00      -0.85    4.24   -0.28
#  50   -1.26   -0.14    0.02    0.43   -0.04    0.00    0.00      -0.99    3.42   -0.28
#  51   -3.85   -1.01    1.45    1.53   -0.11    0.00    0.00      -1.99    3.89   -0.28
#  52   -2.37   -0.40    0.26    1.25   -0.07    0.00    0.00      -1.34    4.79   -0.28
#  53   -1.89   -0.26    0.04    0.77   -0.04    0.00    0.00      -1.38    3.10   -0.15
#  54   -2.00   -0.17    0.01    0.93   -0.05    0.00    0.00      -1.28    5.70   -0.28
#  55   -3.19   -0.32    0.05    1.29   -0.09    0.00    0.00      -2.26    3.88   -0.28
#  56   -2.85   -1.02    1.51    1.10   -0.12    0.00    0.00      -1.37    2.57   -0.28
#  57   -1.22   -0.39    0.19    1.01   -0.06    0.00    0.00      -0.48    3.43   -0.22

@<TRIPOS>MOLECULE
             1505        98
   57    60     0     0     0



@<TRIPOS>ATOM
      1 C1         32.8074    12.5977    61.8333 C.3        1           0.0231
      2 O1         32.4625    13.1902    63.0871 O.3        1          -0.3127
      3 C2         31.1925    13.6536    63.2219 C.ar       1           0.1460
      4 C3         30.3088    13.5317    62.1734 C.ar       1          -0.1625
      5 C4         28.9969    14.0102    62.3140 C.ar       1           0.0015
      6 C5         28.0693    13.9001    61.2607 C.ar       1          -0.1063
      7 C6         26.8056    14.3688    61.4169 C.ar       1          -0.0937
      8 C7         26.4031    14.9684    62.6247 C.ar       1          -0.0763
      9 C8         27.2930    15.0918    63.6795 C.ar       1          -0.0415
     10 C9         28.6036    14.6127    63.5365 C.ar       1          -0.0875
     11 C10        29.5327    14.7200    64.5873 C.ar       1          -0.0572
     12 C11        30.7960    14.2437    64.4259 C.ar       1          -0.1873
     13 C12        25.0222    15.4703    62.7688 C.2        1           0.2019
     14 C13        23.9247    14.7512    63.2451 C.2        1          -0.3100
     15 C14        23.9246    13.3538    63.6973 C.2        1           0.6022
     16 N1         25.0665    12.6382    63.6754 N.am       1          -0.8443
     17 O2         22.8936    12.8422    64.0919 O.2        1          -0.5371
     18 C15        22.8111    15.6262    63.2100 C.2        1           0.3850
     19 N2         21.5099    15.3113    63.6018 N.pl3      1          -0.8361
     20 N3         23.2158    16.7823    62.7465 N.2        1          -0.3520
     21 N4         24.5853    16.7132    62.4698 N.pl3      1          -0.3564
     22 C16        25.4074    17.8048    61.9415 C.3        1           0.1401
     23 C17        25.3970    17.7569    60.4122 C.3        1          -0.1198
     24 C18        26.2419    18.9064    59.8569 C.3        1          -0.1413
     25 C19        25.6236    20.2373    60.2902 C.3        1          -0.0070
     26 N5         24.2542    20.3403    59.7713 N.4        1          -0.3818
     27 H1         24.2705    20.2560    58.7659 H          1           0.4287
     28 C20        23.6903    21.6453    60.1413 C.3        1          -0.0581
     29 C21        23.4188    19.2731    60.3354 C.3        1          -0.0053
     30 C22        23.9610    17.9092    59.9036 C.3        1          -0.1422
     31 H2         33.8468    12.2708    61.8595 H          1           0.0599
     32 H3         32.1613    11.7398    61.6468 H          1           0.1064
     33 H4         32.6770    13.3306    61.0370 H          1           0.0582
     34 H5         30.6230    13.0710    61.2485 H          1           0.1395
     35 H6         28.3637    13.4426    60.3278 H          1           0.1354
     36 H7         26.0999    14.2809    60.6042 H          1           0.1245
     37 H8         26.9801    15.5533    64.6044 H          1           0.1365
     38 H9         29.2421    15.1772    65.5216 H          1           0.1358
     39 H10        31.5037    14.3254    65.2376 H          1           0.1362
     40 H11        25.8885    13.0461    63.3609 H          1           0.4032
     41 H12        25.0664    11.7153    63.9740 H          1           0.4054
     42 H13        21.3050    14.4236    63.9347 H          1           0.4137
     43 H14        20.8099    15.9801    63.5412 H          1           0.4090
     44 H15        25.0034    18.7595    62.2778 H          1           0.1034
     45 H16        26.4305    17.6960    62.3014 H          1           0.1050
     46 H17        25.8057    16.8048    60.0736 H          1           0.0973
     47 H18        27.2578    18.8329    60.2449 H          1           0.0935
     48 H19        26.2621    18.8512    58.7684 H          1           0.1147
     49 H20        25.6036    20.2901    61.3788 H          1           0.1320
     50 H21        26.2225    21.0596    59.8989 H          1           0.1285
     51 H22        22.6734    21.7238    59.7567 H          1           0.1239
     52 H23        23.6766    21.7406    61.2270 H          1           0.1244
     53 H24        24.3025    22.4397    59.7145 H          1           0.1263
     54 H25        23.4311    19.3401    61.4234 H          1           0.1340
     55 H26        22.3955    19.3863    59.9774 H          1           0.1299
     56 H27        23.9503    17.8405    58.8158 H          1           0.1163
     57 H28        23.3392    17.1195    60.3254 H          1           0.0949
@<TRIPOS>BOND
     1    1    2 1
     2    1   31 1
     3    1   32 1
     4    1   33 1
     5    2    3 1
     6    3   12 ar
     7    3    4 ar
     8    4    5 ar
     9    4   34 1
    10    5   10 ar
    11    5    6 ar
    12    6    7 ar
    13    6   35 1
    14    7    8 ar
    15    7   36 1
    16    8    9 ar
    17    8   13 1
    18    9   10 ar
    19    9   37 1
    20   10   11 ar
    21   11   12 ar
    22   11   38 1
    23   12   39 1
    24   13   21 1
    25   13   14 2
    26   14   15 1
    27   14   18 1
    28   15   16 am
    29   15   17 2
    30   16   40 1
    31   16   41 1
    32   18   19 1
    33   18   20 2
    34   19   42 1
    35   19   43 1
    36   20   21 1
    37   21   22 1
    38   22   23 1
    39   22   44 1
    40   22   45 1
    41   23   30 1
    42   23   24 1
    43   23   46 1
    44   24   25 1
    45   24   47 1
    46   24   48 1
    47   25   26 1
    48   25   49 1
    49   25   50 1
    50   26   27 1
    51   26   28 1
    52   26   29 1
    53   28   51 1
    54   28   52 1
    55   28   53 1
    56   29   30 1
    57   29   54 1
    58   29   55 1
    59   30   56 1
    60   30   57 1
##########                 Name:                 1505
##########          Protonation:                   98
##########               SMILES:   C[NH+]1CC[C@@H](CC1)Cn2nc(c(c2c3cc4c(cc(cc4)OC)cc3)C(=O)N)N
##########            Long Name:   y-2-naphthyl)-1-[(1-methylpiperidin-1-ium-4-yl)methyl]pyrazole-4-carboxamide
##########          FlexRecCode: 1
##########               Number:                   62
##########   Ligand Source File: /raid1/people/rgc/Examples/tdt/part3/ligand22set/build/ligand22set-0000001.db2.g
##########           GlobalRank: 19
##########                 Rank:                    2
##########               Setnum:                    2
##########             Matchnum:                16226
##########                Cloud:                    1
##########        Electrostatic:           -25.685102
##########        Van der Waals:           -15.143876
##########  Ligand Polar Desolv:             9.122341
########## Ligand Apolar Desolv:            -0.822342
##########      Internal Energy:             0.000000
##########      Receptor Energy: 0.0
########## Receptor Desolvation:             0.000000
########## Receptor Hydrophobic:             0.000000
##########         Total Energy: -32.53
##########        Ligand Charge:             1.000000
##########            Arbitrary:    +999.9990
##########     heavy atom count:   29
##########           pose count:   10
##########        Ligand Energy:             0.000000
# num electro vdwattr vdwrepu polsolv apolsol rdesolv rhydroe totalscore fullpol fullapo
#   1    0.02   -0.07    0.00    0.00    0.00    0.00    0.00      -0.04    0.08    0.03
#   2   -0.30   -0.11    0.00   -0.10    0.05    0.00    0.00      -0.45   -1.78    0.92
#   3    0.15   -0.21    0.00    0.04   -0.03    0.00    0.00      -0.04    0.51   -0.31
#   4   -0.15   -0.44    0.03   -0.17   -0.06    0.00    0.00      -0.80   -1.22   -0.45
#   5    0.00   -0.58    0.04   -0.03   -0.08    0.00    0.00      -0.65   -0.17   -0.40
#   6    0.06   -1.33    0.32   -0.33   -0.13    0.00    0.00      -1.41   -1.18   -0.45
#   7    0.21   -1.17    0.15   -0.31   -0.13    0.00    0.00      -1.26   -0.91   -0.39
#   8    0.23   -0.93    0.07   -0.15   -0.12    0.00    0.00      -0.89   -0.44   -0.37
#   9    0.07   -1.39    0.42   -0.14   -0.12    0.00    0.00      -1.17   -0.51   -0.42
#  10    0.01   -0.63    0.06   -0.16   -0.08    0.00    0.00      -0.80   -0.76   -0.40
#  11   -0.05   -0.64    0.08   -0.11   -0.10    0.00    0.00      -0.82   -0.53   -0.45
#  12   -0.22   -0.30    0.01   -0.18   -0.06    0.00    0.00      -0.74   -1.37   -0.43
#  13   -0.77   -1.16    0.14    0.72   -0.24    0.00    0.00      -1.32    2.00   -0.68
#  14    0.62   -1.63    0.33   -1.09   -0.18    0.00    0.00      -1.96   -2.51   -0.41
#  15   -1.39   -3.18    2.09    1.33   -0.30    0.00    0.00      -1.45    2.66   -0.60
#  16    5.11   -5.22   11.12   -2.90    0.92    0.00    0.00       9.03   -6.19    1.96
#  17   -1.28   -3.32    1.54   -0.01    0.25    0.00    0.00      -2.82   -0.02    0.44
#  18   -0.19   -1.48    0.31    1.03   -0.96    0.00    0.00      -1.29    2.46   -2.30
#  19   -2.86   -1.62    0.33   -3.22    0.43    0.00    0.00      -6.93   -6.89    0.93
#  20    1.35   -1.13    0.10   -1.28    0.47    0.00    0.00      -0.49   -3.32    1.22
#  21    2.06   -1.04    0.11   -1.20    0.29    0.00    0.00       0.21   -3.84    0.93
#  22   -1.13   -0.60    0.10    0.45   -0.11    0.00    0.00      -1.28    1.78   -0.42
#  23    1.28   -0.57    0.05   -0.65   -0.04    0.00    0.00       0.06   -2.23   -0.15
#  24    1.56   -0.63    0.12   -0.82   -0.05    0.00    0.00       0.17   -3.17   -0.21
#  25    0.10   -0.60    0.14    0.11   -0.10    0.00    0.00      -0.36    0.45   -0.43
#  26    9.80   -2.27    3.77   -3.63    0.19    0.00    0.00       7.86  -10.92    0.56
#  27  -19.93   -0.43    0.68    5.74    0.20    0.00    0.00     -13.73   16.21    0.56
#  28    1.28   -1.26    0.40   -0.68   -0.15    0.00    0.00      -0.41   -1.97   -0.44
#  29    0.11   -0.88    0.15    0.07   -0.16    0.00    0.00      -0.69    0.20   -0.42
#  30    2.50   -1.19    0.38   -1.35   -0.08    0.00    0.00       0.27   -3.62   -0.21
#  31    0.05   -0.01    0.00    0.01    0.00    0.00    0.00       0.05    0.57   -0.27
#  32    0.11   -0.02    0.00    0.02   -0.01    0.00    0.00       0.11    1.13   -0.28
#  33    0.06   -0.04    0.00    0.03   -0.01    0.00    0.00       0.04    0.78   -0.27
#  34    0.13   -0.12    0.02    0.13   -0.03    0.00    0.00       0.12    1.16   -0.28
#  35    0.07   -0.58    0.39    0.72   -0.08    0.00    0.00       0.51    2.37   -0.28
#  36   -0.25   -0.38    0.10    0.96   -0.09    0.00    0.00       0.33    2.65   -0.25
#  37   -0.17   -0.84    0.75    0.19   -0.10    0.00    0.00      -0.16    0.57   -0.28
#  38    0.13   -0.25    0.06    0.31   -0.07    0.00    0.00       0.19    1.26   -0.28
#  39    0.17   -0.06    0.00    0.09   -0.01    0.00    0.00       0.19    1.34   -0.22
#  40   -1.87   -0.03    0.00    1.49    0.21    0.00    0.00      -0.21    4.24    0.59
#  41   -2.27   -0.13    0.02    1.64    0.30    0.00    0.00      -0.43    3.24    0.60
#  42    1.67   -0.02    0.00    1.20    0.21    0.00    0.00       3.06    3.29    0.58
#  43    2.50   -0.02    0.00    1.29    0.19    0.00    0.00       3.96    4.11    0.59
#  44   -0.92   -0.20    0.03    0.39   -0.04    0.00    0.00      -0.74    2.29   -0.21
#  45   -0.71   -0.23    0.10    0.35   -0.04    0.00    0.00      -0.53    2.40   -0.28
#  46   -0.69   -0.19    0.01    0.26   -0.06    0.00    0.00      -0.66    1.20   -0.28
#  47   -0.49   -0.08    0.00    0.20   -0.02    0.00    0.00      -0.39    2.55   -0.22
#  48   -1.62   -0.48    0.29    0.06   -0.07    0.00    0.00      -1.82    0.23   -0.26
#  49   -1.21   -0.11    0.00    0.51   -0.03    0.00    0.00      -0.85    4.24   -0.28
#  50   -1.26   -0.14    0.02    0.43   -0.04    0.00    0.00      -0.99    3.42   -0.28
#  51   -3.85   -1.01    1.45    1.53   -0.11    0.00    0.00      -1.99    3.89   -0.28
#  52   -2.37   -0.40    0.26    1.25   -0.07    0.00    0.00      -1.34    4.79   -0.28
#  53   -1.89   -0.26    0.04    0.77   -0.04    0.00    0.00      -1.38    3.10   -0.15
#  54   -2.00   -0.17    0.01    0.93   -0.05    0.00    0.00      -1.28    5.70   -0.28
#  55   -3.19   -0.32    0.05    1.29   -0.09    0.00    0.00      -2.26    3.88   -0.28
#  56   -2.85   -1.02    1.51    1.10   -0.12    0.00    0.00      -1.37    2.57   -0.28
#  57   -1.22   -0.39    0.19    1.01   -0.06    0.00    0.00      -0.48    3.43   -0.22

@<TRIPOS>MOLECULE
             1505        98
   57    60     0     0     0



@<TRIPOS>ATOM
      1 C1         33.3305    13.3401    64.2123 C.3        1           0.0231
      2 O1         32.4625    13.1902    63.0871 O.3        1          -0.3127
      3 C2         31.1925    13.6536    63.2219 C.ar       1           0.1460
      4 C3         30.3088    13.5317    62.1734 C.ar       1          -0.1625
      5 C4         28.9969    14.0102    62.3140 C.ar       1           0.0015
      6 C5         28.0693    13.9001    61.2607 C.ar       1          -0.1063
      7 C6         26.8056    14.3688    61.4169 C.ar       1          -0.0937
      8 C7         26.4031    14.9684    62.6247 C.ar       1          -0.0763
      9 C8         27.2930    15.0918    63.6795 C.ar       1          -0.0415
     10 C9         28.6036    14.6127    63.5365 C.ar       1          -0.0875
     11 C10        29.5327    14.7200    64.5873 C.ar       1          -0.0572
     12 C11        30.7960    14.2437    64.4259 C.ar       1          -0.1873
     13 C12        25.0222    15.4703    62.7688 C.2        1           0.2019
     14 C13        23.9247    14.7512    63.2451 C.2        1          -0.3100
     15 C14        23.9246    13.3538    63.6973 C.2        1           0.6022
     16 N1         25.0665    12.6382    63.6754 N.am       1          -0.8443
     17 O2         22.8936    12.8422    64.0919 O.2        1          -0.5371
     18 C15        22.8111    15.6262    63.2100 C.2        1           0.3850
     19 N2         21.5099    15.3113    63.6018 N.pl3      1          -0.8361
     20 N3         23.2158    16.7823    62.7465 N.2        1          -0.3520
     21 N4         24.5853    16.7132    62.4698 N.pl3      1          -0.3564
     22 C16        25.4074    17.8048    61.9415 C.3        1           0.1401
     23 C17        25.3970    17.7569    60.4122 C.3        1          -0.1198
     24 C18        26.2419    18.9064    59.8569 C.3        1          -0.1413
     25 C19        25.6236    20.2373    60.2902 C.3        1          -0.0070
     26 N5         24.2542    20.3403    59.7713 N.4        1          -0.3818
     27 H1         24.2705    20.2560    58.7659 H          1           0.4287
     28 C20        23.6903    21.6453    60.1413 C.3        1          -0.0581
     29 C21        23.4188    19.2731    60.3354 C.3        1          -0.0053
     30 C22        23.9610    17.9092    59.9036 C.3        1          -0.1422
     31 H2         34.3113    12.9300    63.9719 H          1           0.0599
     32 H3         33.4291    14.3979    64.4569 H          1           0.1064
     33 H4         32.9134    12.8071    65.0667 H          1           0.0582
     34 H5         30.6230    13.0710    61.2485 H          1           0.1395
     35 H6         28.3637    13.4426    60.3278 H          1           0.1354
     36 H7         26.0999    14.2809    60.6042 H          1           0.1245
     37 H8         26.9801    15.5533    64.6044 H          1           0.1365
     38 H9         29.2421    15.1772    65.5216 H          1           0.1358
     39 H10        31.5037    14.3254    65.2376 H          1           0.1362
     40 H11        25.8885    13.0461    63.3609 H          1           0.4032
     41 H12        25.0664    11.7153    63.9740 H          1           0.4054
     42 H13        21.3050    14.4236    63.9347 H          1           0.4137
     43 H14        20.8099    15.9801    63.5412 H          1           0.4090
     44 H15        25.0034    18.7595    62.2778 H          1           0.1034
     45 H16        26.4305    17.6960    62.3014 H          1           0.1050
     46 H17        25.8057    16.8048    60.0736 H          1           0.0973
     47 H18        27.2578    18.8329    60.2449 H          1           0.0935
     48 H19        26.2621    18.8512    58.7684 H          1           0.1147
     49 H20        25.6036    20.2901    61.3788 H          1           0.1320
     50 H21        26.2225    21.0596    59.8989 H          1           0.1285
     51 H22        22.6734    21.7238    59.7567 H          1           0.1239
     52 H23        23.6766    21.7406    61.2270 H          1           0.1244
     53 H24        24.3025    22.4397    59.7145 H          1           0.1263
     54 H25        23.4311    19.3401    61.4234 H          1           0.1340
     55 H26        22.3955    19.3863    59.9774 H          1           0.1299
     56 H27        23.9503    17.8405    58.8158 H          1           0.1163
     57 H28        23.3392    17.1195    60.3254 H          1           0.0949
@<TRIPOS>BOND
     1    1    2 1
     2    1   31 1
     3    1   32 1
     4    1   33 1
     5    2    3 1
     6    3   12 ar
     7    3    4 ar
     8    4    5 ar
     9    4   34 1
    10    5   10 ar
    11    5    6 ar
    12    6    7 ar
    13    6   35 1
    14    7    8 ar
    15    7   36 1
    16    8    9 ar
    17    8   13 1
    18    9   10 ar
    19    9   37 1
    20   10   11 ar
    21   11   12 ar
    22   11   38 1
    23   12   39 1
    24   13   21 1
    25   13   14 2
    26   14   15 1
    27   14   18 1
    28   15   16 am
    29   15   17 2
    30   16   40 1
    31   16   41 1
    32   18   19 1
    33   18   20 2
    34   19   42 1
    35   19   43 1
    36   20   21 1
    37   21   22 1
    38   22   23 1
    39   22   44 1
    40   22   45 1
    41   23   30 1
    42   23   24 1
    43   23   46 1
    44   24   25 1
    45   24   47 1
    46   24   48 1
    47   25   26 1
    48   25   49 1
    49   25   50 1
    50   26   27 1
    51   26   28 1
    52   26   29 1
    53   28   51 1
    54   28   52 1
    55   28   53 1
    56   29   30 1
    57   29   54 1
    58   29   55 1
    59   30   56 1
    60   30   57 1
##########                 Name:                 1505
##########          Protonation:                   98
##########               SMILES:   C[NH+]1CC[C@@H](CC1)Cn2nc(c(c2c3cc4c(cc(cc4)OC)cc3)C(=O)N)N
##########            Long Name:   y-2-naphthyl)-1-[(1-methylpiperidin-1-ium-4-yl)methyl]pyrazole-4-carboxamide
##########          FlexRecCode: 1
##########               Number:                   59
##########   Ligand Source File: /raid1/people/rgc/Examples/tdt/part3/ligand22set/build/ligand22set-0000001.db2.g
##########           GlobalRank: 20
##########                 Rank:                    1
##########               Setnum:                  211
##########             Matchnum:                18721
##########                Cloud:                    1
##########        Electrostatic:           -21.202127
##########        Van der Waals:           -20.587862
##########  Ligand Polar Desolv:            10.426639
########## Ligand Apolar Desolv:            -0.852751
##########      Internal Energy:             0.000000
##########      Receptor Energy: 0.0
########## Receptor Desolvation:             0.000000
########## Receptor Hydrophobic:             0.000000
##########         Total Energy: -32.22
##########        Ligand Charge:             1.000000
##########            Arbitrary:    +999.9990
##########     heavy atom count:   29
##########           pose count:   10
##########        Ligand Energy:             0.000000
# num electro vdwattr vdwrepu polsolv apolsol rdesolv rhydroe totalscore fullpol fullapo
#   1    0.03   -0.60    0.12    0.02    0.01    0.00    0.00      -0.43    0.08    0.03
#   2   -0.29   -0.87    0.26   -0.38    0.20    0.00    0.00      -1.07   -1.78    0.92
#   3    0.09   -1.45    0.82    0.13   -0.08    0.00    0.00      -0.49    0.51   -0.31
#   4    0.02   -1.21    0.29   -0.32   -0.12    0.00    0.00      -1.33   -1.22   -0.45
#   5    0.00   -1.14    0.14   -0.06   -0.13    0.00    0.00      -1.19   -0.17   -0.40
#   6    0.18   -1.90    0.82   -0.45   -0.17    0.00    0.00      -1.53   -1.18   -0.45
#   7    0.15   -2.83    1.85   -0.39   -0.17    0.00    0.00      -1.38   -0.91   -0.39
#   8    0.25   -1.42    0.22   -0.18   -0.15    0.00    0.00      -1.28   -0.44   -0.37
#   9    0.18   -1.02    0.08   -0.19   -0.15    0.00    0.00      -1.10   -0.51   -0.42
#  10    0.22   -1.02    0.09   -0.26   -0.13    0.00    0.00      -1.10   -0.76   -0.40
#  11    0.03   -1.47    0.60   -0.16   -0.14    0.00    0.00      -1.14   -0.53   -0.45
#  12   -0.15   -1.44    0.46   -0.39   -0.12    0.00    0.00      -1.64   -1.37   -0.43
#  13   -0.30   -1.49    0.28    0.83   -0.28    0.00    0.00      -0.96    2.00   -0.68
#  14   -0.38   -1.76    0.57   -1.19   -0.19    0.00    0.00      -2.96   -2.51   -0.41
#  15    1.43   -2.57    0.75    1.55   -0.35    0.00    0.00       0.81    2.66   -0.60
#  16   -4.59   -4.90    4.27   -3.79    1.20    0.00    0.00      -7.80   -6.19    1.96
#  17   -1.04   -4.23    3.19   -0.01    0.27    0.00    0.00      -1.83   -0.02    0.44
#  18    1.59   -1.65    0.38    1.10   -1.02    0.00    0.00       0.40    2.46   -2.30
#  19   -7.11   -1.61    0.22   -3.59    0.48    0.00    0.00     -11.60   -6.89    0.93
#  20   -0.66   -1.71    0.36   -1.48    0.54    0.00    0.00      -2.94   -3.32    1.22
#  21    0.78   -1.38    0.16   -1.56    0.38    0.00    0.00      -1.63   -3.84    0.93
#  22   -0.86   -1.17    0.35    0.66   -0.16    0.00    0.00      -1.17    1.78   -0.42
#  23    1.24   -0.53    0.03   -0.70   -0.05    0.00    0.00      -0.01   -2.23   -0.15
#  24    1.34   -0.45    0.03   -0.74   -0.05    0.00    0.00       0.13   -3.17   -0.21
#  25    0.11   -0.82    0.31    0.12   -0.11    0.00    0.00      -0.39    0.45   -0.43
#  26   10.02   -2.83    7.56   -3.53    0.18    0.00    0.00      11.41  -10.92    0.56
#  27  -18.27   -0.44    0.80    5.30    0.18    0.00    0.00     -12.43   16.21    0.56
#  28    0.94   -0.72    0.11   -0.59   -0.13    0.00    0.00      -0.41   -1.97   -0.44
#  29    0.14   -1.52    0.88    0.08   -0.17    0.00    0.00      -0.59    0.20   -0.42
#  30    2.19   -0.65    0.03   -1.43   -0.08    0.00    0.00       0.06   -3.62   -0.21
#  31    0.07   -0.11    0.01    0.06   -0.03    0.00    0.00       0.01    0.57   -0.27
#  32    0.13   -0.39    0.14    0.35   -0.09    0.00    0.00       0.13    1.13   -0.28
#  33    0.08   -0.11    0.01    0.10   -0.04    0.00    0.00       0.05    0.78   -0.27
#  34    0.07   -0.18    0.02    0.19   -0.05    0.00    0.00       0.05    1.16   -0.28
#  35   -0.02   -0.43    0.32    0.79   -0.09    0.00    0.00       0.56    2.37   -0.28
#  36    0.17   -1.63    5.19    1.27   -0.12    0.00    0.00       4.88    2.65   -0.25
#  37   -0.74   -0.20    0.02    0.14   -0.07    0.00    0.00      -0.85    0.57   -0.28
#  38   -0.04   -0.39    0.28    0.30   -0.07    0.00    0.00       0.09    1.26   -0.28
#  39    0.13   -0.26    0.05    0.34   -0.06    0.00    0.00       0.22    1.34   -0.22
#  40    2.09   -0.12    0.02    2.45    0.34    0.00    0.00       4.79    4.24    0.59
#  41    4.01   -0.17    0.02    2.06    0.38    0.00    0.00       6.31    3.24    0.60
#  42    2.75   -0.02    0.00    1.19    0.21    0.00    0.00       4.13    3.29    0.58
#  43    6.13   -0.03    0.00    1.49    0.21    0.00    0.00       7.80    4.11    0.59
#  44   -0.54   -0.52    0.15    0.87   -0.08    0.00    0.00      -0.13    2.29   -0.21
#  45   -0.82   -0.83    1.44    0.67   -0.08    0.00    0.00       0.39    2.40   -0.28
#  46   -0.97   -0.17    0.01    0.21   -0.05    0.00    0.00      -0.96    1.20   -0.28
#  47   -0.71   -0.17    0.02    0.40   -0.03    0.00    0.00      -0.50    2.55   -0.22
#  48   -0.76   -0.12    0.01    0.03   -0.03    0.00    0.00      -0.87    0.23   -0.26
#  49   -1.30   -0.15    0.02    0.58   -0.04    0.00    0.00      -0.89    4.24   -0.28
#  50   -2.08   -0.37    0.15    0.87   -0.07    0.00    0.00      -1.51    3.42   -0.28
#  51   -2.58   -0.31    0.06    1.10   -0.08    0.00    0.00      -1.82    3.89   -0.28
#  52   -1.63   -0.22    0.04    0.97   -0.06    0.00    0.00      -0.91    4.79   -0.28
#  53   -1.22   -0.12    0.01    0.38   -0.02    0.00    0.00      -0.98    3.10   -0.15
#  54   -4.10   -0.65    0.49    2.24   -0.11    0.00    0.00      -2.13    5.70   -0.28
#  55   -3.67   -0.67    0.43    1.59   -0.11    0.00    0.00      -2.44    3.88   -0.28
#  56   -1.48   -0.19    0.01    0.56   -0.06    0.00    0.00      -1.16    2.57   -0.28
#  57   -1.45   -0.28    0.05    0.83   -0.05    0.00    0.00      -0.91    3.43   -0.22

@<TRIPOS>MOLECULE
             1505        98
   57    60     0     0     0



@<TRIPOS>ATOM
      1 C1         31.2053    13.0917    59.9237 C.3        1           0.0231
      2 O1         30.5235    12.7655    61.1365 O.3        1          -0.3127
      3 C2         29.2943    13.3145    61.3199 C.ar       1           0.1460
      4 C3         28.5919    13.0411    62.4718 C.ar       1          -0.1625
      5 C4         27.3224    13.6091    62.6605 C.ar       1           0.0015
      6 C5         26.5792    13.3496    63.8274 C.ar       1          -0.1063
      7 C6         25.3538    13.9088    63.9906 C.ar       1          -0.0937
      8 C7         24.8085    14.7512    63.0042 C.ar       1          -0.0763
      9 C8         25.5152    15.0255    61.8444 C.ar       1          -0.0415
     10 C9         26.7839    14.4566    61.6583 C.ar       1          -0.0875
     11 C10        27.5297    14.7147    60.4939 C.ar       1          -0.0572
     12 C11        28.7593    14.1553    60.3391 C.ar       1          -0.1873
     13 C12        23.4730    15.3471    63.2062 C.2        1           0.2019
     14 C13        22.2756    14.6538    63.3913 C.2        1          -0.3100
     15 C14        22.1057    13.1951    63.4222 C.2        1           0.6022
     16 N1         22.2040    12.5298    64.5901 N.am       1          -0.8443
     17 O2         21.8764    12.5875    62.3934 O.2        1          -0.5371
     18 C15        21.2557    15.6248    63.5447 C.2        1           0.3850
     19 N2         19.9014    15.3638    63.7534 N.pl3      1          -0.8361
     20 N3         21.8054    16.8104    63.4572 N.2        1          -0.3520
     21 N4         23.1816    16.6654    63.2522 N.pl3      1          -0.3564
     22 C16        24.1449    17.7599    63.1083 C.3        1           0.1401
     23 C17        24.2646    18.1430    61.6319 C.3        1          -0.1198
     24 C18        25.5729    18.9062    61.4054 C.3        1          -0.1413
     25 C19        25.6487    19.3551    59.9445 C.3        1          -0.0070
     26 N5         24.5107    20.2300    59.6380 N.4        1          -0.3818
     27 H1         24.5924    20.5668    58.6904 H          1           0.4287
     28 C20        24.5089    21.3708    60.5633 C.3        1          -0.0581
     29 C21        23.2553    19.4836    59.7837 C.3        1          -0.0053
     30 C22        23.0873    19.0396    61.2384 C.3        1          -0.1422
     31 H2         32.1722    12.5892    59.9041 H          1           0.0599
     32 H3         30.6085    12.7650    59.0722 H          1           0.1064
     33 H4         31.3550    14.1701    59.8700 H          1           0.0582
     34 H5         29.0148    12.3935    63.2256 H          1           0.1395
     35 H6         26.9844    12.7049    64.5933 H          1           0.1354
     36 H7         24.7896    13.7047    64.8886 H          1           0.1245
     37 H8         25.0926    15.6721    61.0895 H          1           0.1365
     38 H9         27.1279    15.3587    59.7258 H          1           0.1358
     39 H10        29.3289    14.3602    59.4447 H          1           0.1362
     40 H11        22.3869    13.0143    65.4104 H          1           0.4032
     41 H12        22.0919    11.5666    64.6105 H          1           0.4054
     42 H13        19.5864    14.4478    63.8047 H          1           0.4137
     43 H14        19.2748    16.0982    63.8472 H          1           0.4090
     44 H15        23.8032    18.6221    63.6809 H          1           0.1034
     45 H16        25.1178    17.4389    63.4804 H          1           0.1050
     46 H17        24.2566    17.2413    61.0195 H          1           0.0973
     47 H18        25.6020    19.7798    62.0566 H          1           0.0935
     48 H19        26.4177    18.2553    61.6304 H          1           0.1147
     49 H20        26.5789    19.8988    59.7798 H          1           0.1320
     50 H21        25.6198    18.4808    59.2943 H          1           0.1285
     51 H22        23.6641    22.0213    60.3366 H          1           0.1239
     52 H23        24.4231    21.0079    61.5875 H          1           0.1244
     53 H24        25.4379    21.9301    60.4527 H          1           0.1263
     54 H25        22.4185    20.1220    59.5002 H          1           0.1340
     55 H26        23.2773    18.6066    59.1369 H          1           0.1299
     56 H27        22.1554    18.4841    61.3442 H          1           0.1163
     57 H28        23.0648    19.9161    61.8861 H          1           0.0949
@<TRIPOS>BOND
     1    1    2 1
     2    1   31 1
     3    1   32 1
     4    1   33 1
     5    2    3 1
     6    3   12 ar
     7    3    4 ar
     8    4    5 ar
     9    4   34 1
    10    5   10 ar
    11    5    6 ar
    12    6    7 ar
    13    6   35 1
    14    7    8 ar
    15    7   36 1
    16    8    9 ar
    17    8   13 1
    18    9   10 ar
    19    9   37 1
    20   10   11 ar
    21   11   12 ar
    22   11   38 1
    23   12   39 1
    24   13   21 1
    25   13   14 2
    26   14   15 1
    27   14   18 1
    28   15   16 am
    29   15   17 2
    30   16   40 1
    31   16   41 1
    32   18   19 1
    33   18   20 2
    34   19   42 1
    35   19   43 1
    36   20   21 1
    37   21   22 1
    38   22   23 1
    39   22   44 1
    40   22   45 1
    41   23   30 1
    42   23   24 1
    43   23   46 1
    44   24   25 1
    45   24   47 1
    46   24   48 1
    47   25   26 1
    48   25   49 1
    49   25   50 1
    50   26   27 1
    51   26   28 1
    52   26   29 1
    53   28   51 1
    54   28   52 1
    55   28   53 1
    56   29   30 1
    57   29   54 1
    58   29   55 1
    59   30   56 1
    60   30   57 1
##########                 Name:                 1536
##########          Protonation:                   86
##########               SMILES:   CC(C)(Cn1c2c(c(n1)c3ccc4cc(ccc4c3)OC5CC5)c(ncn2)N)CO
##########            Long Name:   opropoxy)-2-naphthyl]pyrazolo[3,4-d]pyrimidin-1-yl]-2,2-dimethyl-propan-1-ol
##########          FlexRecCode: 1
##########               Number:                  117
##########   Ligand Source File: /raid1/people/rgc/Examples/tdt/part3/ligand22set/build/ligand22set-0000001.db2.g
##########           GlobalRank: 8
##########                 Rank:                    1
##########               Setnum:                  236
##########             Matchnum:                43485
##########                Cloud:                    1
##########        Electrostatic:           -11.126495
##########        Van der Waals:           -29.779865
##########  Ligand Polar Desolv:             5.231339
########## Ligand Apolar Desolv:            -4.835315
##########      Internal Energy:             0.000000
##########      Receptor Energy: 0.0
########## Receptor Desolvation:             0.000000
########## Receptor Hydrophobic:             0.000000
##########         Total Energy: -40.51
##########        Ligand Charge:             0.000000
##########            Arbitrary:    +999.9990
##########     heavy atom count:   30
##########           pose count:    5
##########        Ligand Energy:             0.000000
# num electro vdwattr vdwrepu polsolv apolsol rdesolv rhydroe totalscore fullpol fullapo
#   1    1.99   -1.38    0.49    0.18   -0.08    0.00    0.00       1.20    0.36   -0.16
#   2    1.03   -0.72    0.04    0.05   -0.02    0.00    0.00       0.39    0.12   -0.05
#   3    1.54   -1.35    0.78    0.17   -0.06    0.00    0.00       1.07    0.41   -0.15
#   4   -1.58   -0.67    0.05    0.04   -0.04    0.00    0.00      -2.21    0.10   -0.12
#   5    7.77   -1.38    0.37    0.07    0.55    0.00    0.00       7.39    0.19    1.58
#   6   -0.81   -1.01    0.11   -0.08   -0.17    0.00    0.00      -1.96   -0.18   -0.40
#   7   -0.45   -1.77    0.41    0.70    0.38    0.00    0.00      -0.73    1.56    0.85
#   8   -2.69   -4.47    6.62    0.60    0.51    0.00    0.00       0.57    1.26    1.07
#   9    1.83   -2.46    1.34   -0.34   -0.37    0.00    0.00      -0.01   -0.69   -0.75
#  10   -1.50   -1.68    0.38    0.82   -0.22    0.00    0.00      -2.20    1.63   -0.44
#  11    1.91   -1.92    0.35   -0.93   -1.28    0.00    0.00      -1.87   -1.56   -2.15
#  12   -2.62   -2.71    0.83   -0.27    0.51    0.00    0.00      -4.25   -0.42    0.80
#  13   -0.92   -2.70    0.79    1.17    1.18    0.00    0.00      -0.49    2.06    2.08
#  14   -1.00   -2.24    0.96   -0.46   -1.51    0.00    0.00      -4.25   -0.96   -3.16
#  15    1.11   -1.48    0.37    1.03    0.83    0.00    0.00       1.86    2.52    2.02
#  16    0.35   -1.51    0.32   -0.77   -0.73    0.00    0.00      -2.34   -1.81   -1.71
#  17   -0.51   -2.15    0.56    0.06   -0.22    0.00    0.00      -2.26    0.11   -0.38
#  18   -0.87   -2.91    1.30   -0.01   -0.19    0.00    0.00      -2.68   -0.01   -0.32
#  19   -0.58   -2.99    0.69   -0.06   -0.29    0.00    0.00      -3.23   -0.09   -0.45
#  20   -0.02   -2.73    0.94    0.01   -0.26    0.00    0.00      -2.06    0.02   -0.40
#  21   -1.09   -3.38    1.90    0.16   -0.29    0.00    0.00      -2.70    0.25   -0.46
#  22    1.37   -2.82    2.23   -0.14   -0.20    0.00    0.00       0.43   -0.22   -0.31
#  23   -2.29   -2.27    0.62    0.47    0.57    0.00    0.00      -2.89    0.75    0.91
#  24   -0.03   -1.48    0.38   -0.01   -0.17    0.00    0.00      -1.30   -0.02   -0.26
#  25   -1.01   -1.80    0.77   -0.17   -0.28    0.00    0.00      -2.48   -0.27   -0.44
#  26   -1.00   -1.26    0.18   -0.17   -0.28    0.00    0.00      -2.54   -0.27   -0.44
#  27   -2.01   -2.81    1.40   -0.01   -0.26    0.00    0.00      -3.69   -0.01   -0.43
#  28   -0.69   -3.56    1.94    0.00   -0.28    0.00    0.00      -2.58    0.00   -0.46
#  29   -1.25   -2.54    0.75    0.08   -0.24    0.00    0.00      -3.19    0.14   -0.40
#  30   -0.85   -2.45    0.70    0.06   -0.27    0.00    0.00      -2.80    0.10   -0.45
#  31   -0.87   -0.87    0.88   -0.06   -0.10    0.00    0.00      -1.01   -0.13   -0.23
#  32   -1.16   -0.36    0.05   -0.05   -0.11    0.00    0.00      -1.63   -0.13   -0.28
#  33   -0.61   -0.92    2.87   -0.07   -0.10    0.00    0.00       1.17   -0.20   -0.27
#  34   -0.63   -0.39    0.22   -0.06   -0.07    0.00    0.00      -0.93   -0.22   -0.27
#  35   -0.40   -0.56    0.70   -0.07   -0.09    0.00    0.00      -0.43   -0.21   -0.28
#  36   -0.87   -0.58    0.33   -0.03   -0.10    0.00    0.00      -1.24   -0.07   -0.23
#  37   -0.76   -0.15    0.01    0.03   -0.04    0.00    0.00      -0.91    0.21   -0.28
#  38   -1.27   -0.32    0.07    0.05   -0.08    0.00    0.00      -1.55    0.17   -0.28
#  39   -7.31   -0.09    0.02    0.52    0.38    0.00    0.00      -6.48    1.70    1.24
#  40   -0.60   -0.27    0.03   -0.01   -0.08    0.00    0.00      -0.93   -0.02   -0.28
#  41   -0.53   -0.57    0.14    0.03   -0.13    0.00    0.00      -1.06    0.06   -0.28
#  42    1.50   -0.04    0.00    0.25    0.17    0.00    0.00       1.88    0.51    0.35
#  43    0.44   -0.07    0.00    0.67    0.36    0.00    0.00       1.42    1.09    0.59
#  44   -1.56   -0.68    0.92    0.15   -0.10    0.00    0.00      -1.28    0.41   -0.28
#  45    1.00   -1.18    2.24    0.08   -0.14    0.00    0.00       2.00    0.15   -0.25
#  46   -0.10   -0.90    0.30    0.43   -0.18    0.00    0.00      -0.45    0.67   -0.28
#  47    0.22   -0.87    0.41   -0.02   -0.17    0.00    0.00      -0.44   -0.04   -0.28
#  48    1.01   -0.73    0.60    0.21   -0.10    0.00    0.00       1.00    0.44   -0.20
#  49    0.62   -1.06    1.56    0.01   -0.17    0.00    0.00       0.96    0.02   -0.28
#  50    0.47   -0.53    0.22    0.26   -0.15    0.00    0.00       0.27    0.48   -0.28
#  51    0.40   -0.46    0.11    0.24   -0.13    0.00    0.00       0.15    0.51   -0.28
#  52    0.73   -0.46    0.17    0.02   -0.12    0.00    0.00       0.33    0.04   -0.28
#  53    1.19   -0.57    0.16    0.22   -0.10    0.00    0.00       0.90    0.44   -0.20
#  54    0.31   -1.99    9.08    0.26   -0.17    0.00    0.00       7.48    0.43   -0.28
#  55    2.53   -0.68    0.46   -0.10   -0.14    0.00    0.00       2.07   -0.20   -0.28

@<TRIPOS>MOLECULE
             1536        86
   55    59     0     0     0



@<TRIPOS>ATOM
      1 C1         21.0424    19.4546    61.4132 C.3        1          -0.1329
      2 C2         22.3439    18.6587    61.5279 C.3        1          -0.0817
      3 C3         22.2221    17.3631    60.7231 C.3        1          -0.1307
      4 C4         23.5023    19.4934    60.9784 C.3        1           0.0905
      5 O1         23.9200    20.4375    61.9664 O.3        1          -0.5661
      6 C5         22.6089    18.3234    62.9970 C.3        1           0.1495
      7 N1         21.7946    17.1704    63.3893 N.pl3      1          -0.3701
      8 N2         20.4990    17.2365    63.9127 N.2        1          -0.2310
      9 C6         20.0544    16.0264    64.1571 C.2        1           0.1692
     10 C7         21.1105    15.0883    63.7771 C.ar       1          -0.3246
     11 C8         21.2509    13.6906    63.7936 C.ar       1           0.5183
     12 N3         20.2287    12.8817    64.2512 N.pl3      1          -0.8294
     13 N4         22.3918    13.1659    63.3574 N.ar       1          -0.6049
     14 C9         23.3725    13.9348    62.9181 C.ar       1           0.3849
     15 N5         23.2863    15.2463    62.8847 N.ar       1          -0.5699
     16 C10        22.1797    15.8660    63.2956 C.ar       1           0.3806
     17 C11        18.7272    15.6749    64.7152 C.ar       1          -0.0381
     18 C12        18.6458    14.9743    65.9303 C.ar       1          -0.1000
     19 C13        17.4421    14.6406    66.4625 C.ar       1          -0.1052
     20 C14        16.2553    14.9967    65.7960 C.ar       1          -0.0023
     21 C15        14.9989    14.6631    66.3270 C.ar       1          -0.1571
     22 C16        13.8642    15.0227    65.6571 C.ar       1           0.1433
     23 O2         12.6497    14.6991    66.1736 O.3        1          -0.2817
     24 C17        11.4993    15.1020    65.4277 C.3        1          -0.0038
     25 C18        10.1909    14.3526    65.6877 C.3        1          -0.1827
     26 C19        10.9568    14.1244    64.3831 C.3        1          -0.1680
     27 C20        13.9355    15.7201    64.4470 C.ar       1          -0.1884
     28 C21        15.1362    16.0579    63.9054 C.ar       1          -0.0570
     29 C22        16.3253    15.7039    64.5688 C.ar       1          -0.0825
     30 C23        17.5792    16.0442    64.0385 C.ar       1          -0.0480
     31 H1         21.1291    20.3775    61.9865 H          1           0.0540
     32 H2         20.8537    19.6935    60.3664 H          1           0.0548
     33 H3         20.2170    18.8600    61.8044 H          1           0.0642
     34 H4         23.1492    16.7961    60.8048 H          1           0.0637
     35 H5         21.3967    16.7685    61.1146 H          1           0.0615
     36 H6         22.0333    17.6021    59.6765 H          1           0.0466
     37 H7         24.3360    18.8373    60.7275 H          1           0.0488
     38 H8         23.1756    20.0240    60.0840 H          1           0.0501
     39 H9         23.2272    21.0549    62.2382 H          1           0.3816
     40 H10        23.6641    18.0854    63.1309 H          1           0.1014
     41 H11        22.3481    19.1804    63.6181 H          1           0.0979
     42 H12        19.4011    13.2775    64.5664 H          1           0.4142
     43 H13        20.3386    11.9180    64.2573 H          1           0.4106
     44 H14        24.2825    13.4668    62.5728 H          1           0.2039
     45 H15        19.5525    14.6972    66.4475 H          1           0.1333
     46 H16        17.3957    14.1016    67.3973 H          1           0.1371
     47 H17        14.9302    14.1245    67.2607 H          1           0.1380
     48 H18        11.4339    16.1664    65.2028 H          1           0.1262
     49 H19        10.2076    13.5525    66.4278 H          1           0.1050
     50 H20         9.2643    14.9243    65.6340 H          1           0.1065
     51 H21        10.5342    14.5459    63.4712 H          1           0.1088
     52 H22        11.4773    13.1741    64.2648 H          1           0.1055
     53 H23        13.0246    15.9937    63.9354 H          1           0.1358
     54 H24        15.1768    16.5958    62.9699 H          1           0.1356
     55 H25        17.6471    16.5865    63.1070 H          1           0.1346
@<TRIPOS>BOND
     1    1    2 1
     2    1   31 1
     3    1   32 1
     4    1   33 1
     5    2    3 1
     6    2    4 1
     7    2    6 1
     8    3   34 1
     9    3   35 1
    10    3   36 1
    11    4    5 1
    12    4   37 1
    13    4   38 1
    14    5   39 1
    15    6    7 1
    16    6   40 1
    17    6   41 1
    18    7   16 1
    19    7    8 1
    20    8    9 2
    21    9   10 1
    22    9   17 1
    23   10   16 ar
    24   10   11 ar
    25   11   12 1
    26   11   13 ar
    27   12   42 1
    28   12   43 1
    29   13   14 ar
    30   14   15 ar
    31   14   44 1
    32   15   16 ar
    33   17   30 ar
    34   17   18 ar
    35   18   19 ar
    36   18   45 1
    37   19   20 ar
    38   19   46 1
    39   20   29 ar
    40   20   21 ar
    41   21   22 ar
    42   21   47 1
    43   22   23 1
    44   22   27 ar
    45   23   24 1
    46   24   26 1
    47   24   25 1
    48   24   48 1
    49   25   26 1
    50   25   49 1
    51   25   50 1
    52   26   51 1
    53   26   52 1
    54   27   28 ar
    55   27   53 1
    56   28   29 ar
    57   28   54 1
    58   29   30 ar
    59   30   55 1
##########                 Name:                 1536
##########          Protonation:                   86
##########               SMILES:   CC(C)(Cn1c2c(c(n1)c3ccc4cc(ccc4c3)OC5CC5)c(ncn2)N)CO
##########            Long Name:   opropoxy)-2-naphthyl]pyrazolo[3,4-d]pyrimidin-1-yl]-2,2-dimethyl-propan-1-ol
##########          FlexRecCode: 1
##########               Number:                  117
##########   Ligand Source File: /raid1/people/rgc/Examples/tdt/part3/ligand22set/build/ligand22set-0000001.db2.g
##########           GlobalRank: 13
##########                 Rank:                    2
##########               Setnum:                  302
##########             Matchnum:                43485
##########                Cloud:                    1
##########        Electrostatic:            -8.200732
##########        Van der Waals:           -31.382229
##########  Ligand Polar Desolv:             5.557132
########## Ligand Apolar Desolv:            -4.372170
##########      Internal Energy:             0.000000
##########      Receptor Energy: 0.0
########## Receptor Desolvation:             0.000000
########## Receptor Hydrophobic:             0.000000
##########         Total Energy: -38.4
##########        Ligand Charge:             0.000000
##########            Arbitrary:    +999.9990
##########     heavy atom count:   30
##########           pose count:    5
##########        Ligand Energy:             0.000000
# num electro vdwattr vdwrepu polsolv apolsol rdesolv rhydroe totalscore fullpol fullapo
#   1    1.56   -1.35    0.78    0.15   -0.07    0.00    0.00       1.07    0.36   -0.16
#   2    1.03   -0.72    0.04    0.05   -0.02    0.00    0.00       0.39    0.12   -0.05
#   3    2.29   -0.67    0.05    0.15   -0.06    0.00    0.00       1.76    0.41   -0.15
#   4   -1.35   -1.38    0.49    0.05   -0.06    0.00    0.00      -2.26    0.10   -0.12
#   5   13.99   -2.28    0.95    0.10    0.85    0.00    0.00      13.62    0.19    1.58
#   6   -0.81   -1.01    0.11   -0.08   -0.17    0.00    0.00      -1.96   -0.18   -0.40
#   7   -0.45   -1.77    0.41    0.70    0.38    0.00    0.00      -0.73    1.56    0.85
#   8   -2.69   -4.47    6.62    0.60    0.51    0.00    0.00       0.57    1.26    1.07
#   9    1.83   -2.46    1.34   -0.34   -0.37    0.00    0.00      -0.01   -0.69   -0.75
#  10   -1.50   -1.68    0.38    0.82   -0.22    0.00    0.00      -2.20    1.63   -0.44
#  11    1.91   -1.92    0.35   -0.93   -1.28    0.00    0.00      -1.87   -1.56   -2.15
#  12   -2.62   -2.71    0.83   -0.27    0.51    0.00    0.00      -4.25   -0.42    0.80
#  13   -0.92   -2.70    0.79    1.17    1.18    0.00    0.00      -0.49    2.06    2.08
#  14   -1.00   -2.24    0.96   -0.46   -1.51    0.00    0.00      -4.25   -0.96   -3.16
#  15    1.11   -1.48    0.37    1.03    0.83    0.00    0.00       1.86    2.52    2.02
#  16    0.35   -1.51    0.32   -0.77   -0.73    0.00    0.00      -2.34   -1.81   -1.71
#  17   -0.51   -2.15    0.56    0.06   -0.22    0.00    0.00      -2.26    0.11   -0.38
#  18   -0.87   -2.91    1.30   -0.01   -0.19    0.00    0.00      -2.68   -0.01   -0.32
#  19   -0.58   -2.99    0.69   -0.06   -0.29    0.00    0.00      -3.23   -0.09   -0.45
#  20   -0.02   -2.73    0.94    0.01   -0.26    0.00    0.00      -2.06    0.02   -0.40
#  21   -1.09   -3.38    1.90    0.16   -0.29    0.00    0.00      -2.70    0.25   -0.46
#  22    1.37   -2.82    2.23   -0.14   -0.20    0.00    0.00       0.43   -0.22   -0.31
#  23   -2.29   -2.27    0.62    0.47    0.57    0.00    0.00      -2.89    0.75    0.91
#  24   -0.03   -1.48    0.38   -0.01   -0.17    0.00    0.00      -1.30   -0.02   -0.26
#  25   -1.01   -1.80    0.77   -0.17   -0.28    0.00    0.00      -2.48   -0.27   -0.44
#  26   -1.00   -1.26    0.18   -0.17   -0.28    0.00    0.00      -2.54   -0.27   -0.44
#  27   -2.01   -2.81    1.40   -0.01   -0.26    0.00    0.00      -3.69   -0.01   -0.43
#  28   -0.69   -3.56    1.94    0.00   -0.28    0.00    0.00      -2.58    0.00   -0.46
#  29   -1.25   -2.54    0.75    0.08   -0.24    0.00    0.00      -3.19    0.14   -0.40
#  30   -0.85   -2.45    0.70    0.06   -0.27    0.00    0.00      -2.80    0.10   -0.45
#  31   -0.35   -0.56    0.70   -0.04   -0.08    0.00    0.00      -0.33   -0.13   -0.23
#  32   -1.02   -0.58    0.33   -0.06   -0.12    0.00    0.00      -1.44   -0.13   -0.28
#  33   -0.64   -0.39    0.22   -0.05   -0.07    0.00    0.00      -0.93   -0.20   -0.27
#  34   -1.06   -0.26    0.05   -0.05   -0.06    0.00    0.00      -1.38   -0.22   -0.27
#  35   -0.85   -0.14    0.00   -0.03   -0.04    0.00    0.00      -1.04   -0.21   -0.28
#  36   -1.21   -0.35    0.10   -0.02   -0.07    0.00    0.00      -1.54   -0.07   -0.23
#  37   -0.51   -0.60    0.83    0.08   -0.11    0.00    0.00      -0.30    0.21   -0.28
#  38   -0.69   -0.99    1.30    0.07   -0.12    0.00    0.00      -0.43    0.17   -0.28
#  39  -11.40   -0.05    0.00    0.69    0.50    0.00    0.00     -10.26    1.70    1.24
#  40   -0.60   -0.27    0.03   -0.01   -0.08    0.00    0.00      -0.93   -0.02   -0.28
#  41   -0.53   -0.57    0.14    0.03   -0.13    0.00    0.00      -1.06    0.06   -0.28
#  42    1.50   -0.04    0.00    0.25    0.17    0.00    0.00       1.88    0.51    0.35
#  43    0.44   -0.07    0.00    0.67    0.36    0.00    0.00       1.42    1.09    0.59
#  44   -1.56   -0.68    0.92    0.15   -0.10    0.00    0.00      -1.28    0.41   -0.28
#  45    1.00   -1.18    2.24    0.08   -0.14    0.00    0.00       2.00    0.15   -0.25
#  46   -0.10   -0.90    0.30    0.43   -0.18    0.00    0.00      -0.45    0.67   -0.28
#  47    0.22   -0.87    0.41   -0.02   -0.17    0.00    0.00      -0.44   -0.04   -0.28
#  48    1.01   -0.73    0.60    0.21   -0.10    0.00    0.00       1.00    0.44   -0.20
#  49    0.62   -1.06    1.56    0.01   -0.17    0.00    0.00       0.96    0.02   -0.28
#  50    0.47   -0.53    0.22    0.26   -0.15    0.00    0.00       0.27    0.48   -0.28
#  51    0.40   -0.46    0.11    0.24   -0.13    0.00    0.00       0.15    0.51   -0.28
#  52    0.73   -0.46    0.17    0.02   -0.12    0.00    0.00       0.33    0.04   -0.28
#  53    1.19   -0.57    0.16    0.22   -0.10    0.00    0.00       0.90    0.44   -0.20
#  54    0.31   -1.99    9.08    0.26   -0.17    0.00    0.00       7.48    0.43   -0.28
#  55    2.53   -0.68    0.46   -0.10   -0.14    0.00    0.00       2.07   -0.20   -0.28

@<TRIPOS>MOLECULE
             1536        86
   55    59     0     0     0



@<TRIPOS>ATOM
      1 C1         22.2221    17.3631    60.7231 C.3        1          -0.1329
      2 C2         22.3439    18.6587    61.5279 C.3        1          -0.0817
      3 C3         23.5024    19.4934    60.9783 C.3        1          -0.1307
      4 C4         21.0424    19.4546    61.4132 C.3        1           0.0905
      5 O1         21.0215    20.1567    60.1688 O.3        1          -0.5661
      6 C5         22.6089    18.3234    62.9970 C.3        1           0.1495
      7 N1         21.7946    17.1704    63.3893 N.pl3      1          -0.3701
      8 N2         20.4990    17.2365    63.9127 N.2        1          -0.2310
      9 C6         20.0544    16.0264    64.1571 C.2        1           0.1692
     10 C7         21.1105    15.0883    63.7771 C.ar       1          -0.3246
     11 C8         21.2509    13.6906    63.7936 C.ar       1           0.5183
     12 N3         20.2287    12.8817    64.2512 N.pl3      1          -0.8294
     13 N4         22.3918    13.1659    63.3574 N.ar       1          -0.6049
     14 C9         23.3725    13.9348    62.9181 C.ar       1           0.3849
     15 N5         23.2863    15.2463    62.8847 N.ar       1          -0.5699
     16 C10        22.1797    15.8660    63.2956 C.ar       1           0.3806
     17 C11        18.7272    15.6749    64.7152 C.ar       1          -0.0381
     18 C12        18.6458    14.9743    65.9303 C.ar       1          -0.1000
     19 C13        17.4421    14.6406    66.4625 C.ar       1          -0.1052
     20 C14        16.2553    14.9967    65.7960 C.ar       1          -0.0023
     21 C15        14.9989    14.6631    66.3270 C.ar       1          -0.1571
     22 C16        13.8642    15.0227    65.6571 C.ar       1           0.1433
     23 O2         12.6497    14.6991    66.1736 O.3        1          -0.2817
     24 C17        11.4993    15.1020    65.4277 C.3        1          -0.0038
     25 C18        10.1909    14.3526    65.6877 C.3        1          -0.1827
     26 C19        10.9568    14.1244    64.3831 C.3        1          -0.1680
     27 C20        13.9355    15.7201    64.4470 C.ar       1          -0.1884
     28 C21        15.1362    16.0579    63.9054 C.ar       1          -0.0570
     29 C22        16.3253    15.7039    64.5688 C.ar       1          -0.0825
     30 C23        17.5792    16.0442    64.0385 C.ar       1          -0.0480
     31 H1         21.3969    16.7684    61.1146 H          1           0.0540
     32 H2         22.0332    17.6021    59.6765 H          1           0.0548
     33 H3         23.1494    16.7961    60.8047 H          1           0.0642
     34 H4         23.5892    20.4164    61.5516 H          1           0.0637
     35 H5         24.4296    18.9263    61.0601 H          1           0.0615
     36 H6         23.3136    19.7323    59.9317 H          1           0.0466
     37 H7         20.1938    18.7721    61.4595 H          1           0.0488
     38 H8         20.9796    20.1687    62.2344 H          1           0.0501
     39 H9         21.7498    20.7832    60.0584 H          1           0.3816
     40 H10        23.6641    18.0854    63.1309 H          1           0.1014
     41 H11        22.3481    19.1804    63.6181 H          1           0.0979
     42 H12        19.4011    13.2775    64.5664 H          1           0.4142
     43 H13        20.3386    11.9180    64.2573 H          1           0.4106
     44 H14        24.2825    13.4668    62.5728 H          1           0.2039
     45 H15        19.5525    14.6972    66.4475 H          1           0.1333
     46 H16        17.3957    14.1016    67.3973 H          1           0.1371
     47 H17        14.9302    14.1245    67.2607 H          1           0.1380
     48 H18        11.4339    16.1664    65.2028 H          1           0.1262
     49 H19        10.2076    13.5525    66.4278 H          1           0.1050
     50 H20         9.2643    14.9243    65.6340 H          1           0.1065
     51 H21        10.5342    14.5459    63.4712 H          1           0.1088
     52 H22        11.4773    13.1741    64.2648 H          1           0.1055
     53 H23        13.0246    15.9937    63.9354 H          1           0.1358
     54 H24        15.1768    16.5958    62.9699 H          1           0.1356
     55 H25        17.6471    16.5865    63.1070 H          1           0.1346
@<TRIPOS>BOND
     1    1    2 1
     2    1   31 1
     3    1   32 1
     4    1   33 1
     5    2    3 1
     6    2    4 1
     7    2    6 1
     8    3   34 1
     9    3   35 1
    10    3   36 1
    11    4    5 1
    12    4   37 1
    13    4   38 1
    14    5   39 1
    15    6    7 1
    16    6   40 1
    17    6   41 1
    18    7   16 1
    19    7    8 1
    20    8    9 2
    21    9   10 1
    22    9   17 1
    23   10   16 ar
    24   10   11 ar
    25   11   12 1
    26   11   13 ar
    27   12   42 1
    28   12   43 1
    29   13   14 ar
    30   14   15 ar
    31   14   44 1
    32   15   16 ar
    33   17   30 ar
    34   17   18 ar
    35   18   19 ar
    36   18   45 1
    37   19   20 ar
    38   19   46 1
    39   20   29 ar
    40   20   21 ar
    41   21   22 ar
    42   21   47 1
    43   22   23 1
    44   22   27 ar
    45   23   24 1
    46   24   26 1
    47   24   25 1
    48   24   48 1
    49   25   26 1
    50   25   49 1
    51   25   50 1
    52   26   51 1
    53   26   52 1
    54   27   28 ar
    55   27   53 1
    56   28   29 ar
    57   28   54 1
    58   29   30 ar
    59   30   55 1
##########                 Name:                 1536
##########          Protonation:                   86
##########               SMILES:   CC(C)(Cn1c2c(c(n1)c3ccc4cc(ccc4c3)OC5CC5)c(ncn2)N)CO
##########            Long Name:   opropoxy)-2-naphthyl]pyrazolo[3,4-d]pyrimidin-1-yl]-2,2-dimethyl-propan-1-ol
##########          FlexRecCode: 1
##########               Number:                  117
##########   Ligand Source File: /raid1/people/rgc/Examples/tdt/part3/ligand22set/build/ligand22set-0000001.db2.g
##########           GlobalRank: 13
##########                 Rank:                    3
##########               Setnum:                  235
##########             Matchnum:                43485
##########                Cloud:                    1
##########        Electrostatic:            -8.196632
##########        Van der Waals:           -29.723579
##########  Ligand Polar Desolv:             5.033862
########## Ligand Apolar Desolv:            -4.979356
##########      Internal Energy:             0.000000
##########      Receptor Energy: 0.0
########## Receptor Desolvation:             0.000000
########## Receptor Hydrophobic:             0.000000
##########         Total Energy: -37.87
##########        Ligand Charge:             0.000000
##########            Arbitrary:    +999.9990
##########     heavy atom count:   30
##########           pose count:    5
##########        Ligand Energy:             0.000000
# num electro vdwattr vdwrepu polsolv apolsol rdesolv rhydroe totalscore fullpol fullapo
#   1    1.99   -1.38    0.49    0.18   -0.08    0.00    0.00       1.20    0.36   -0.16
#   2    1.03   -0.72    0.04    0.05   -0.02    0.00    0.00       0.39    0.12   -0.05
#   3    1.54   -1.35    0.78    0.17   -0.06    0.00    0.00       1.07    0.41   -0.15
#   4   -1.58   -0.67    0.05    0.04   -0.04    0.00    0.00      -2.21    0.10   -0.12
#   5    7.77   -1.38    0.37    0.07    0.55    0.00    0.00       7.39    0.19    1.58
#   6   -0.81   -1.01    0.11   -0.08   -0.17    0.00    0.00      -1.96   -0.18   -0.40
#   7   -0.45   -1.77    0.41    0.70    0.38    0.00    0.00      -0.73    1.56    0.85
#   8   -2.69   -4.47    6.62    0.60    0.51    0.00    0.00       0.57    1.26    1.07
#   9    1.83   -2.46    1.34   -0.34   -0.37    0.00    0.00      -0.01   -0.69   -0.75
#  10   -1.50   -1.68    0.38    0.82   -0.22    0.00    0.00      -2.20    1.63   -0.44
#  11    1.91   -1.92    0.35   -0.93   -1.28    0.00    0.00      -1.87   -1.56   -2.15
#  12   -2.62   -2.71    0.83   -0.27    0.51    0.00    0.00      -4.25   -0.42    0.80
#  13   -0.92   -2.70    0.79    1.17    1.18    0.00    0.00      -0.49    2.06    2.08
#  14   -1.00   -2.24    0.96   -0.46   -1.51    0.00    0.00      -4.25   -0.96   -3.16
#  15    1.11   -1.48    0.37    1.03    0.83    0.00    0.00       1.86    2.52    2.02
#  16    0.35   -1.51    0.32   -0.77   -0.73    0.00    0.00      -2.34   -1.81   -1.71
#  17   -0.51   -2.15    0.56    0.06   -0.22    0.00    0.00      -2.26    0.11   -0.38
#  18   -0.87   -2.91    1.30   -0.01   -0.19    0.00    0.00      -2.68   -0.01   -0.32
#  19   -0.58   -2.99    0.69   -0.06   -0.29    0.00    0.00      -3.23   -0.09   -0.45
#  20   -0.02   -2.73    0.94    0.01   -0.26    0.00    0.00      -2.06    0.02   -0.40
#  21   -1.09   -3.38    1.90    0.16   -0.29    0.00    0.00      -2.70    0.25   -0.46
#  22    1.37   -2.82    2.23   -0.14   -0.20    0.00    0.00       0.43   -0.22   -0.31
#  23   -2.29   -2.27    0.62    0.47    0.57    0.00    0.00      -2.89    0.75    0.91
#  24   -0.03   -1.48    0.38   -0.01   -0.17    0.00    0.00      -1.30   -0.02   -0.26
#  25   -1.01   -1.80    0.77   -0.17   -0.28    0.00    0.00      -2.48   -0.27   -0.44
#  26   -1.00   -1.26    0.18   -0.17   -0.28    0.00    0.00      -2.54   -0.27   -0.44
#  27   -2.01   -2.81    1.40   -0.01   -0.26    0.00    0.00      -3.69   -0.01   -0.43
#  28   -0.69   -3.56    1.94    0.00   -0.28    0.00    0.00      -2.58    0.00   -0.46
#  29   -1.25   -2.54    0.75    0.08   -0.24    0.00    0.00      -3.19    0.14   -0.40
#  30   -0.85   -2.45    0.70    0.06   -0.27    0.00    0.00      -2.80    0.10   -0.45
#  31   -0.87   -0.87    0.88   -0.06   -0.10    0.00    0.00      -1.01   -0.13   -0.23
#  32   -1.16   -0.36    0.05   -0.05   -0.11    0.00    0.00      -1.63   -0.13   -0.28
#  33   -0.61   -0.92    2.87   -0.07   -0.10    0.00    0.00       1.17   -0.20   -0.27
#  34   -0.63   -0.39    0.22   -0.06   -0.07    0.00    0.00      -0.93   -0.22   -0.27
#  35   -0.40   -0.56    0.70   -0.07   -0.09    0.00    0.00      -0.43   -0.21   -0.28
#  36   -0.87   -0.58    0.33   -0.03   -0.10    0.00    0.00      -1.24   -0.07   -0.23
#  37   -0.76   -0.15    0.01    0.03   -0.04    0.00    0.00      -0.91    0.21   -0.28
#  38   -1.27   -0.32    0.07    0.05   -0.08    0.00    0.00      -1.55    0.17   -0.28
#  39   -4.38   -0.02    0.00    0.33    0.24    0.00    0.00      -3.83    1.70    1.24
#  40   -0.60   -0.27    0.03   -0.01   -0.08    0.00    0.00      -0.93   -0.02   -0.28
#  41   -0.53   -0.57    0.14    0.03   -0.13    0.00    0.00      -1.06    0.06   -0.28
#  42    1.50   -0.04    0.00    0.25    0.17    0.00    0.00       1.88    0.51    0.35
#  43    0.44   -0.07    0.00    0.67    0.36    0.00    0.00       1.42    1.09    0.59
#  44   -1.56   -0.68    0.92    0.15   -0.10    0.00    0.00      -1.28    0.41   -0.28
#  45    1.00   -1.18    2.24    0.08   -0.14    0.00    0.00       2.00    0.15   -0.25
#  46   -0.10   -0.90    0.30    0.43   -0.18    0.00    0.00      -0.45    0.67   -0.28
#  47    0.22   -0.87    0.41   -0.02   -0.17    0.00    0.00      -0.44   -0.04   -0.28
#  48    1.01   -0.73    0.60    0.21   -0.10    0.00    0.00       1.00    0.44   -0.20
#  49    0.62   -1.06    1.56    0.01   -0.17    0.00    0.00       0.96    0.02   -0.28
#  50    0.47   -0.53    0.22    0.26   -0.15    0.00    0.00       0.27    0.48   -0.28
#  51    0.40   -0.46    0.11    0.24   -0.13    0.00    0.00       0.15    0.51   -0.28
#  52    0.73   -0.46    0.17    0.02   -0.12    0.00    0.00       0.33    0.04   -0.28
#  53    1.19   -0.57    0.16    0.22   -0.10    0.00    0.00       0.90    0.44   -0.20
#  54    0.31   -1.99    9.08    0.26   -0.17    0.00    0.00       7.48    0.43   -0.28
#  55    2.53   -0.68    0.46   -0.10   -0.14    0.00    0.00       2.07   -0.20   -0.28

@<TRIPOS>MOLECULE
             1536        86
   55    59     0     0     0



@<TRIPOS>ATOM
      1 C1         21.0424    19.4546    61.4132 C.3        1          -0.1329
      2 C2         22.3439    18.6587    61.5279 C.3        1          -0.0817
      3 C3         22.2221    17.3631    60.7231 C.3        1          -0.1307
      4 C4         23.5023    19.4934    60.9784 C.3        1           0.0905
      5 O1         23.9200    20.4375    61.9664 O.3        1          -0.5661
      6 C5         22.6089    18.3234    62.9970 C.3        1           0.1495
      7 N1         21.7946    17.1704    63.3893 N.pl3      1          -0.3701
      8 N2         20.4990    17.2365    63.9127 N.2        1          -0.2310
      9 C6         20.0544    16.0264    64.1571 C.2        1           0.1692
     10 C7         21.1105    15.0883    63.7771 C.ar       1          -0.3246
     11 C8         21.2509    13.6906    63.7936 C.ar       1           0.5183
     12 N3         20.2287    12.8817    64.2512 N.pl3      1          -0.8294
     13 N4         22.3918    13.1659    63.3574 N.ar       1          -0.6049
     14 C9         23.3725    13.9348    62.9181 C.ar       1           0.3849
     15 N5         23.2863    15.2463    62.8847 N.ar       1          -0.5699
     16 C10        22.1797    15.8660    63.2956 C.ar       1           0.3806
     17 C11        18.7272    15.6749    64.7152 C.ar       1          -0.0381
     18 C12        18.6458    14.9743    65.9303 C.ar       1          -0.1000
     19 C13        17.4421    14.6406    66.4625 C.ar       1          -0.1052
     20 C14        16.2553    14.9967    65.7960 C.ar       1          -0.0023
     21 C15        14.9989    14.6631    66.3270 C.ar       1          -0.1571
     22 C16        13.8642    15.0227    65.6571 C.ar       1           0.1433
     23 O2         12.6497    14.6991    66.1736 O.3        1          -0.2817
     24 C17        11.4993    15.1020    65.4277 C.3        1          -0.0038
     25 C18        10.1909    14.3526    65.6877 C.3        1          -0.1827
     26 C19        10.9568    14.1244    64.3831 C.3        1          -0.1680
     27 C20        13.9355    15.7201    64.4470 C.ar       1          -0.1884
     28 C21        15.1362    16.0579    63.9054 C.ar       1          -0.0570
     29 C22        16.3253    15.7039    64.5688 C.ar       1          -0.0825
     30 C23        17.5792    16.0442    64.0385 C.ar       1          -0.0480
     31 H1         21.1291    20.3775    61.9865 H          1           0.0540
     32 H2         20.8537    19.6935    60.3664 H          1           0.0548
     33 H3         20.2170    18.8600    61.8044 H          1           0.0642
     34 H4         23.1492    16.7961    60.8048 H          1           0.0637
     35 H5         21.3967    16.7685    61.1146 H          1           0.0615
     36 H6         22.0333    17.6021    59.6765 H          1           0.0466
     37 H7         24.3360    18.8373    60.7275 H          1           0.0488
     38 H8         23.1756    20.0240    60.0840 H          1           0.0501
     39 H9         24.6531    21.0023    61.6858 H          1           0.3816
     40 H10        23.6641    18.0854    63.1309 H          1           0.1014
     41 H11        22.3481    19.1804    63.6181 H          1           0.0979
     42 H12        19.4011    13.2775    64.5664 H          1           0.4142
     43 H13        20.3386    11.9180    64.2573 H          1           0.4106
     44 H14        24.2825    13.4668    62.5728 H          1           0.2039
     45 H15        19.5525    14.6972    66.4475 H          1           0.1333
     46 H16        17.3957    14.1016    67.3973 H          1           0.1371
     47 H17        14.9302    14.1245    67.2607 H          1           0.1380
     48 H18        11.4339    16.1664    65.2028 H          1           0.1262
     49 H19        10.2076    13.5525    66.4278 H          1           0.1050
     50 H20         9.2643    14.9243    65.6340 H          1           0.1065
     51 H21        10.5342    14.5459    63.4712 H          1           0.1088
     52 H22        11.4773    13.1741    64.2648 H          1           0.1055
     53 H23        13.0246    15.9937    63.9354 H          1           0.1358
     54 H24        15.1768    16.5958    62.9699 H          1           0.1356
     55 H25        17.6471    16.5865    63.1070 H          1           0.1346
@<TRIPOS>BOND
     1    1    2 1
     2    1   31 1
     3    1   32 1
     4    1   33 1
     5    2    3 1
     6    2    4 1
     7    2    6 1
     8    3   34 1
     9    3   35 1
    10    3   36 1
    11    4    5 1
    12    4   37 1
    13    4   38 1
    14    5   39 1
    15    6    7 1
    16    6   40 1
    17    6   41 1
    18    7   16 1
    19    7    8 1
    20    8    9 2
    21    9   10 1
    22    9   17 1
    23   10   16 ar
    24   10   11 ar
    25   11   12 1
    26   11   13 ar
    27   12   42 1
    28   12   43 1
    29   13   14 ar
    30   14   15 ar
    31   14   44 1
    32   15   16 ar
    33   17   30 ar
    34   17   18 ar
    35   18   19 ar
    36   18   45 1
    37   19   20 ar
    38   19   46 1
    39   20   29 ar
    40   20   21 ar
    41   21   22 ar
    42   21   47 1
    43   22   23 1
    44   22   27 ar
    45   23   24 1
    46   24   26 1
    47   24   25 1
    48   24   48 1
    49   25   26 1
    50   25   49 1
    51   25   50 1
    52   26   51 1
    53   26   52 1
    54   27   28 ar
    55   27   53 1
    56   28   29 ar
    57   28   54 1
    58   29   30 ar
    59   30   55 1
##########                 Name:                 1536
##########          Protonation:                   86
##########               SMILES:   CC(C)(Cn1c2c(c(n1)c3ccc4cc(ccc4c3)OC5CC5)c(ncn2)N)CO
##########            Long Name:   opropoxy)-2-naphthyl]pyrazolo[3,4-d]pyrimidin-1-yl]-2,2-dimethyl-propan-1-ol
##########          FlexRecCode: 1
##########               Number:                  117
##########   Ligand Source File: /raid1/people/rgc/Examples/tdt/part3/ligand22set/build/ligand22set-0000001.db2.g
##########           GlobalRank: 14
##########                 Rank:                    4
##########               Setnum:                  303
##########             Matchnum:                43485
##########                Cloud:                    1
##########        Electrostatic:            -7.246328
##########        Van der Waals:           -31.384819
##########  Ligand Polar Desolv:             5.626412
########## Ligand Apolar Desolv:            -4.321637
##########      Internal Energy:             0.000000
##########      Receptor Energy: 0.0
########## Receptor Desolvation:             0.000000
########## Receptor Hydrophobic:             0.000000
##########         Total Energy: -37.33
##########        Ligand Charge:             0.000000
##########            Arbitrary:    +999.9990
##########     heavy atom count:   30
##########           pose count:    5
##########        Ligand Energy:             0.000000
# num electro vdwattr vdwrepu polsolv apolsol rdesolv rhydroe totalscore fullpol fullapo
#   1    1.56   -1.35    0.78    0.15   -0.07    0.00    0.00       1.07    0.36   -0.16
#   2    1.03   -0.72    0.04    0.05   -0.02    0.00    0.00       0.39    0.12   -0.05
#   3    2.29   -0.67    0.05    0.15   -0.06    0.00    0.00       1.76    0.41   -0.15
#   4   -1.35   -1.38    0.49    0.05   -0.06    0.00    0.00      -2.26    0.10   -0.12
#   5   13.99   -2.28    0.95    0.10    0.85    0.00    0.00      13.62    0.19    1.58
#   6   -0.81   -1.01    0.11   -0.08   -0.17    0.00    0.00      -1.96   -0.18   -0.40
#   7   -0.45   -1.77    0.41    0.70    0.38    0.00    0.00      -0.73    1.56    0.85
#   8   -2.69   -4.47    6.62    0.60    0.51    0.00    0.00       0.57    1.26    1.07
#   9    1.83   -2.46    1.34   -0.34   -0.37    0.00    0.00      -0.01   -0.69   -0.75
#  10   -1.50   -1.68    0.38    0.82   -0.22    0.00    0.00      -2.20    1.63   -0.44
#  11    1.91   -1.92    0.35   -0.93   -1.28    0.00    0.00      -1.87   -1.56   -2.15
#  12   -2.62   -2.71    0.83   -0.27    0.51    0.00    0.00      -4.25   -0.42    0.80
#  13   -0.92   -2.70    0.79    1.17    1.18    0.00    0.00      -0.49    2.06    2.08
#  14   -1.00   -2.24    0.96   -0.46   -1.51    0.00    0.00      -4.25   -0.96   -3.16
#  15    1.11   -1.48    0.37    1.03    0.83    0.00    0.00       1.86    2.52    2.02
#  16    0.35   -1.51    0.32   -0.77   -0.73    0.00    0.00      -2.34   -1.81   -1.71
#  17   -0.51   -2.15    0.56    0.06   -0.22    0.00    0.00      -2.26    0.11   -0.38
#  18   -0.87   -2.91    1.30   -0.01   -0.19    0.00    0.00      -2.68   -0.01   -0.32
#  19   -0.58   -2.99    0.69   -0.06   -0.29    0.00    0.00      -3.23   -0.09   -0.45
#  20   -0.02   -2.73    0.94    0.01   -0.26    0.00    0.00      -2.06    0.02   -0.40
#  21   -1.09   -3.38    1.90    0.16   -0.29    0.00    0.00      -2.70    0.25   -0.46
#  22    1.37   -2.82    2.23   -0.14   -0.20    0.00    0.00       0.43   -0.22   -0.31
#  23   -2.29   -2.27    0.62    0.47    0.57    0.00    0.00      -2.89    0.75    0.91
#  24   -0.03   -1.48    0.38   -0.01   -0.17    0.00    0.00      -1.30   -0.02   -0.26
#  25   -1.01   -1.80    0.77   -0.17   -0.28    0.00    0.00      -2.48   -0.27   -0.44
#  26   -1.00   -1.26    0.18   -0.17   -0.28    0.00    0.00      -2.54   -0.27   -0.44
#  27   -2.01   -2.81    1.40   -0.01   -0.26    0.00    0.00      -3.69   -0.01   -0.43
#  28   -0.69   -3.56    1.94    0.00   -0.28    0.00    0.00      -2.58    0.00   -0.46
#  29   -1.25   -2.54    0.75    0.08   -0.24    0.00    0.00      -3.19    0.14   -0.40
#  30   -0.85   -2.45    0.70    0.06   -0.27    0.00    0.00      -2.80    0.10   -0.45
#  31   -0.35   -0.56    0.70   -0.04   -0.08    0.00    0.00      -0.33   -0.13   -0.23
#  32   -1.02   -0.58    0.33   -0.06   -0.12    0.00    0.00      -1.44   -0.13   -0.28
#  33   -0.64   -0.39    0.22   -0.05   -0.07    0.00    0.00      -0.93   -0.20   -0.27
#  34   -1.06   -0.26    0.05   -0.05   -0.06    0.00    0.00      -1.38   -0.22   -0.27
#  35   -0.85   -0.14    0.00   -0.03   -0.04    0.00    0.00      -1.04   -0.21   -0.28
#  36   -1.21   -0.35    0.10   -0.02   -0.07    0.00    0.00      -1.54   -0.07   -0.23
#  37   -0.51   -0.60    0.83    0.08   -0.11    0.00    0.00      -0.30    0.21   -0.28
#  38   -0.69   -0.99    1.30    0.07   -0.12    0.00    0.00      -0.43    0.17   -0.28
#  39  -10.44   -0.06    0.00    0.76    0.55    0.00    0.00      -9.19    1.70    1.24
#  40   -0.60   -0.27    0.03   -0.01   -0.08    0.00    0.00      -0.93   -0.02   -0.28
#  41   -0.53   -0.57    0.14    0.03   -0.13    0.00    0.00      -1.06    0.06   -0.28
#  42    1.50   -0.04    0.00    0.25    0.17    0.00    0.00       1.88    0.51    0.35
#  43    0.44   -0.07    0.00    0.67    0.36    0.00    0.00       1.42    1.09    0.59
#  44   -1.56   -0.68    0.92    0.15   -0.10    0.00    0.00      -1.28    0.41   -0.28
#  45    1.00   -1.18    2.24    0.08   -0.14    0.00    0.00       2.00    0.15   -0.25
#  46   -0.10   -0.90    0.30    0.43   -0.18    0.00    0.00      -0.45    0.67   -0.28
#  47    0.22   -0.87    0.41   -0.02   -0.17    0.00    0.00      -0.44   -0.04   -0.28
#  48    1.01   -0.73    0.60    0.21   -0.10    0.00    0.00       1.00    0.44   -0.20
#  49    0.62   -1.06    1.56    0.01   -0.17    0.00    0.00       0.96    0.02   -0.28
#  50    0.47   -0.53    0.22    0.26   -0.15    0.00    0.00       0.27    0.48   -0.28
#  51    0.40   -0.46    0.11    0.24   -0.13    0.00    0.00       0.15    0.51   -0.28
#  52    0.73   -0.46    0.17    0.02   -0.12    0.00    0.00       0.33    0.04   -0.28
#  53    1.19   -0.57    0.16    0.22   -0.10    0.00    0.00       0.90    0.44   -0.20
#  54    0.31   -1.99    9.08    0.26   -0.17    0.00    0.00       7.48    0.43   -0.28
#  55    2.53   -0.68    0.46   -0.10   -0.14    0.00    0.00       2.07   -0.20   -0.28

@<TRIPOS>MOLECULE
             1536        86
   55    59     0     0     0



@<TRIPOS>ATOM
      1 C1         22.2221    17.3631    60.7231 C.3        1          -0.1329
      2 C2         22.3439    18.6587    61.5279 C.3        1          -0.0817
      3 C3         23.5024    19.4934    60.9783 C.3        1          -0.1307
      4 C4         21.0424    19.4546    61.4132 C.3        1           0.0905
      5 O1         21.0215    20.1567    60.1688 O.3        1          -0.5661
      6 C5         22.6089    18.3234    62.9970 C.3        1           0.1495
      7 N1         21.7946    17.1704    63.3893 N.pl3      1          -0.3701
      8 N2         20.4990    17.2365    63.9127 N.2        1          -0.2310
      9 C6         20.0544    16.0264    64.1571 C.2        1           0.1692
     10 C7         21.1105    15.0883    63.7771 C.ar       1          -0.3246
     11 C8         21.2509    13.6906    63.7936 C.ar       1           0.5183
     12 N3         20.2287    12.8817    64.2512 N.pl3      1          -0.8294
     13 N4         22.3918    13.1659    63.3574 N.ar       1          -0.6049
     14 C9         23.3725    13.9348    62.9181 C.ar       1           0.3849
     15 N5         23.2863    15.2463    62.8847 N.ar       1          -0.5699
     16 C10        22.1797    15.8660    63.2956 C.ar       1           0.3806
     17 C11        18.7272    15.6749    64.7152 C.ar       1          -0.0381
     18 C12        18.6458    14.9743    65.9303 C.ar       1          -0.1000
     19 C13        17.4421    14.6406    66.4625 C.ar       1          -0.1052
     20 C14        16.2553    14.9967    65.7960 C.ar       1          -0.0023
     21 C15        14.9989    14.6631    66.3270 C.ar       1          -0.1571
     22 C16        13.8642    15.0227    65.6571 C.ar       1           0.1433
     23 O2         12.6497    14.6991    66.1736 O.3        1          -0.2817
     24 C17        11.4993    15.1020    65.4277 C.3        1          -0.0038
     25 C18        10.1909    14.3526    65.6877 C.3        1          -0.1827
     26 C19        10.9568    14.1244    64.3831 C.3        1          -0.1680
     27 C20        13.9355    15.7201    64.4470 C.ar       1          -0.1884
     28 C21        15.1362    16.0579    63.9054 C.ar       1          -0.0570
     29 C22        16.3253    15.7039    64.5688 C.ar       1          -0.0825
     30 C23        17.5792    16.0442    64.0385 C.ar       1          -0.0480
     31 H1         21.3969    16.7684    61.1146 H          1           0.0540
     32 H2         22.0332    17.6021    59.6765 H          1           0.0548
     33 H3         23.1494    16.7961    60.8047 H          1           0.0642
     34 H4         23.5892    20.4164    61.5516 H          1           0.0637
     35 H5         24.4296    18.9263    61.0601 H          1           0.0615
     36 H6         23.3136    19.7323    59.9317 H          1           0.0466
     37 H7         20.1938    18.7721    61.4595 H          1           0.0488
     38 H8         20.9796    20.1687    62.2344 H          1           0.0501
     39 H9         21.0742    19.5828    59.3924 H          1           0.3816
     40 H10        23.6641    18.0854    63.1309 H          1           0.1014
     41 H11        22.3481    19.1804    63.6181 H          1           0.0979
     42 H12        19.4011    13.2775    64.5664 H          1           0.4142
     43 H13        20.3386    11.9180    64.2573 H          1           0.4106
     44 H14        24.2825    13.4668    62.5728 H          1           0.2039
     45 H15        19.5525    14.6972    66.4475 H          1           0.1333
     46 H16        17.3957    14.1016    67.3973 H          1           0.1371
     47 H17        14.9302    14.1245    67.2607 H          1           0.1380
     48 H18        11.4339    16.1664    65.2028 H          1           0.1262
     49 H19        10.2076    13.5525    66.4278 H          1           0.1050
     50 H20         9.2643    14.9243    65.6340 H          1           0.1065
     51 H21        10.5342    14.5459    63.4712 H          1           0.1088
     52 H22        11.4773    13.1741    64.2648 H          1           0.1055
     53 H23        13.0246    15.9937    63.9354 H          1           0.1358
     54 H24        15.1768    16.5958    62.9699 H          1           0.1356
     55 H25        17.6471    16.5865    63.1070 H          1           0.1346
@<TRIPOS>BOND
     1    1    2 1
     2    1   31 1
     3    1   32 1
     4    1   33 1
     5    2    3 1
     6    2    4 1
     7    2    6 1
     8    3   34 1
     9    3   35 1
    10    3   36 1
    11    4    5 1
    12    4   37 1
    13    4   38 1
    14    5   39 1
    15    6    7 1
    16    6   40 1
    17    6   41 1
    18    7   16 1
    19    7    8 1
    20    8    9 2
    21    9   10 1
    22    9   17 1
    23   10   16 ar
    24   10   11 ar
    25   11   12 1
    26   11   13 ar
    27   12   42 1
    28   12   43 1
    29   13   14 ar
    30   14   15 ar
    31   14   44 1
    32   15   16 ar
    33   17   30 ar
    34   17   18 ar
    35   18   19 ar
    36   18   45 1
    37   19   20 ar
    38   19   46 1
    39   20   29 ar
    40   20   21 ar
    41   21   22 ar
    42   21   47 1
    43   22   23 1
    44   22   27 ar
    45   23   24 1
    46   24   26 1
    47   24   25 1
    48   24   48 1
    49   25   26 1
    50   25   49 1
    51   25   50 1
    52   26   51 1
    53   26   52 1
    54   27   28 ar
    55   27   53 1
    56   28   29 ar
    57   28   54 1
    58   29   30 ar
    59   30   55 1
##########                 Name:                 1536
##########          Protonation:                   86
##########               SMILES:   CC(C)(Cn1c2c(c(n1)c3ccc4cc(ccc4c3)OC5CC5)c(ncn2)N)CO
##########            Long Name:   opropoxy)-2-naphthyl]pyrazolo[3,4-d]pyrimidin-1-yl]-2,2-dimethyl-propan-1-ol
##########          FlexRecCode: 1
##########               Number:                  117
##########   Ligand Source File: /raid1/people/rgc/Examples/tdt/part3/ligand22set/build/ligand22set-0000001.db2.g
##########           GlobalRank: 15
##########                 Rank:                    5
##########               Setnum:                  237
##########             Matchnum:                43485
##########                Cloud:                    1
##########        Electrostatic:            -7.131624
##########        Van der Waals:           -29.737759
##########  Ligand Polar Desolv:             5.190324
########## Ligand Apolar Desolv:            -4.865231
##########      Internal Energy:             0.000000
##########      Receptor Energy: 0.0
########## Receptor Desolvation:             0.000000
########## Receptor Hydrophobic:             0.000000
##########         Total Energy: -36.54
##########        Ligand Charge:             0.000000
##########            Arbitrary:    +999.9990
##########     heavy atom count:   30
##########           pose count:    5
##########        Ligand Energy:             0.000000
# num electro vdwattr vdwrepu polsolv apolsol rdesolv rhydroe totalscore fullpol fullapo
#   1    1.99   -1.38    0.49    0.18   -0.08    0.00    0.00       1.20    0.36   -0.16
#   2    1.03   -0.72    0.04    0.05   -0.02    0.00    0.00       0.39    0.12   -0.05
#   3    1.54   -1.35    0.78    0.17   -0.06    0.00    0.00       1.07    0.41   -0.15
#   4   -1.58   -0.67    0.05    0.04   -0.04    0.00    0.00      -2.21    0.10   -0.12
#   5    7.77   -1.38    0.37    0.07    0.55    0.00    0.00       7.39    0.19    1.58
#   6   -0.81   -1.01    0.11   -0.08   -0.17    0.00    0.00      -1.96   -0.18   -0.40
#   7   -0.45   -1.77    0.41    0.70    0.38    0.00    0.00      -0.73    1.56    0.85
#   8   -2.69   -4.47    6.62    0.60    0.51    0.00    0.00       0.57    1.26    1.07
#   9    1.83   -2.46    1.34   -0.34   -0.37    0.00    0.00      -0.01   -0.69   -0.75
#  10   -1.50   -1.68    0.38    0.82   -0.22    0.00    0.00      -2.20    1.63   -0.44
#  11    1.91   -1.92    0.35   -0.93   -1.28    0.00    0.00      -1.87   -1.56   -2.15
#  12   -2.62   -2.71    0.83   -0.27    0.51    0.00    0.00      -4.25   -0.42    0.80
#  13   -0.92   -2.70    0.79    1.17    1.18    0.00    0.00      -0.49    2.06    2.08
#  14   -1.00   -2.24    0.96   -0.46   -1.51    0.00    0.00      -4.25   -0.96   -3.16
#  15    1.11   -1.48    0.37    1.03    0.83    0.00    0.00       1.86    2.52    2.02
#  16    0.35   -1.51    0.32   -0.77   -0.73    0.00    0.00      -2.34   -1.81   -1.71
#  17   -0.51   -2.15    0.56    0.06   -0.22    0.00    0.00      -2.26    0.11   -0.38
#  18   -0.87   -2.91    1.30   -0.01   -0.19    0.00    0.00      -2.68   -0.01   -0.32
#  19   -0.58   -2.99    0.69   -0.06   -0.29    0.00    0.00      -3.23   -0.09   -0.45
#  20   -0.02   -2.73    0.94    0.01   -0.26    0.00    0.00      -2.06    0.02   -0.40
#  21   -1.09   -3.38    1.90    0.16   -0.29    0.00    0.00      -2.70    0.25   -0.46
#  22    1.37   -2.82    2.23   -0.14   -0.20    0.00    0.00       0.43   -0.22   -0.31
#  23   -2.29   -2.27    0.62    0.47    0.57    0.00    0.00      -2.89    0.75    0.91
#  24   -0.03   -1.48    0.38   -0.01   -0.17    0.00    0.00      -1.30   -0.02   -0.26
#  25   -1.01   -1.80    0.77   -0.17   -0.28    0.00    0.00      -2.48   -0.27   -0.44
#  26   -1.00   -1.26    0.18   -0.17   -0.28    0.00    0.00      -2.54   -0.27   -0.44
#  27   -2.01   -2.81    1.40   -0.01   -0.26    0.00    0.00      -3.69   -0.01   -0.43
#  28   -0.69   -3.56    1.94    0.00   -0.28    0.00    0.00      -2.58    0.00   -0.46
#  29   -1.25   -2.54    0.75    0.08   -0.24    0.00    0.00      -3.19    0.14   -0.40
#  30   -0.85   -2.45    0.70    0.06   -0.27    0.00    0.00      -2.80    0.10   -0.45
#  31   -0.87   -0.87    0.88   -0.06   -0.10    0.00    0.00      -1.01   -0.13   -0.23
#  32   -1.16   -0.36    0.05   -0.05   -0.11    0.00    0.00      -1.63   -0.13   -0.28
#  33   -0.61   -0.92    2.87   -0.07   -0.10    0.00    0.00       1.17   -0.20   -0.27
#  34   -0.63   -0.39    0.22   -0.06   -0.07    0.00    0.00      -0.93   -0.22   -0.27
#  35   -0.40   -0.56    0.70   -0.07   -0.09    0.00    0.00      -0.43   -0.21   -0.28
#  36   -0.87   -0.58    0.33   -0.03   -0.10    0.00    0.00      -1.24   -0.07   -0.23
#  37   -0.76   -0.15    0.01    0.03   -0.04    0.00    0.00      -0.91    0.21   -0.28
#  38   -1.27   -0.32    0.07    0.05   -0.08    0.00    0.00      -1.55    0.17   -0.28
#  39   -3.32   -0.03    0.00    0.48    0.35    0.00    0.00      -2.51    1.70    1.24
#  40   -0.60   -0.27    0.03   -0.01   -0.08    0.00    0.00      -0.93   -0.02   -0.28
#  41   -0.53   -0.57    0.14    0.03   -0.13    0.00    0.00      -1.06    0.06   -0.28
#  42    1.50   -0.04    0.00    0.25    0.17    0.00    0.00       1.88    0.51    0.35
#  43    0.44   -0.07    0.00    0.67    0.36    0.00    0.00       1.42    1.09    0.59
#  44   -1.56   -0.68    0.92    0.15   -0.10    0.00    0.00      -1.28    0.41   -0.28
#  45    1.00   -1.18    2.24    0.08   -0.14    0.00    0.00       2.00    0.15   -0.25
#  46   -0.10   -0.90    0.30    0.43   -0.18    0.00    0.00      -0.45    0.67   -0.28
#  47    0.22   -0.87    0.41   -0.02   -0.17    0.00    0.00      -0.44   -0.04   -0.28
#  48    1.01   -0.73    0.60    0.21   -0.10    0.00    0.00       1.00    0.44   -0.20
#  49    0.62   -1.06    1.56    0.01   -0.17    0.00    0.00       0.96    0.02   -0.28
#  50    0.47   -0.53    0.22    0.26   -0.15    0.00    0.00       0.27    0.48   -0.28
#  51    0.40   -0.46    0.11    0.24   -0.13    0.00    0.00       0.15    0.51   -0.28
#  52    0.73   -0.46    0.17    0.02   -0.12    0.00    0.00       0.33    0.04   -0.28
#  53    1.19   -0.57    0.16    0.22   -0.10    0.00    0.00       0.90    0.44   -0.20
#  54    0.31   -1.99    9.08    0.26   -0.17    0.00    0.00       7.48    0.43   -0.28
#  55    2.53   -0.68    0.46   -0.10   -0.14    0.00    0.00       2.07   -0.20   -0.28

@<TRIPOS>MOLECULE
             1536        86
   55    59     0     0     0



@<TRIPOS>ATOM
      1 C1         21.0424    19.4546    61.4132 C.3        1          -0.1329
      2 C2         22.3439    18.6587    61.5279 C.3        1          -0.0817
      3 C3         22.2221    17.3631    60.7231 C.3        1          -0.1307
      4 C4         23.5023    19.4934    60.9784 C.3        1           0.0905
      5 O1         23.9200    20.4375    61.9664 O.3        1          -0.5661
      6 C5         22.6089    18.3234    62.9970 C.3        1           0.1495
      7 N1         21.7946    17.1704    63.3893 N.pl3      1          -0.3701
      8 N2         20.4990    17.2365    63.9127 N.2        1          -0.2310
      9 C6         20.0544    16.0264    64.1571 C.2        1           0.1692
     10 C7         21.1105    15.0883    63.7771 C.ar       1          -0.3246
     11 C8         21.2509    13.6906    63.7936 C.ar       1           0.5183
     12 N3         20.2287    12.8817    64.2512 N.pl3      1          -0.8294
     13 N4         22.3918    13.1659    63.3574 N.ar       1          -0.6049
     14 C9         23.3725    13.9348    62.9181 C.ar       1           0.3849
     15 N5         23.2863    15.2463    62.8847 N.ar       1          -0.5699
     16 C10        22.1797    15.8660    63.2956 C.ar       1           0.3806
     17 C11        18.7272    15.6749    64.7152 C.ar       1          -0.0381
     18 C12        18.6458    14.9743    65.9303 C.ar       1          -0.1000
     19 C13        17.4421    14.6406    66.4625 C.ar       1          -0.1052
     20 C14        16.2553    14.9967    65.7960 C.ar       1          -0.0023
     21 C15        14.9989    14.6631    66.3270 C.ar       1          -0.1571
     22 C16        13.8642    15.0227    65.6571 C.ar       1           0.1433
     23 O2         12.6497    14.6991    66.1736 O.3        1          -0.2817
     24 C17        11.4993    15.1020    65.4277 C.3        1          -0.0038
     25 C18        10.1909    14.3526    65.6877 C.3        1          -0.1827
     26 C19        10.9568    14.1244    64.3831 C.3        1          -0.1680
     27 C20        13.9355    15.7201    64.4470 C.ar       1          -0.1884
     28 C21        15.1362    16.0579    63.9054 C.ar       1          -0.0570
     29 C22        16.3253    15.7039    64.5688 C.ar       1          -0.0825
     30 C23        17.5792    16.0442    64.0385 C.ar       1          -0.0480
     31 H1         21.1291    20.3775    61.9865 H          1           0.0540
     32 H2         20.8537    19.6935    60.3664 H          1           0.0548
     33 H3         20.2170    18.8600    61.8044 H          1           0.0642
     34 H4         23.1492    16.7961    60.8048 H          1           0.0637
     35 H5         21.3967    16.7685    61.1146 H          1           0.0615
     36 H6         22.0333    17.6021    59.6765 H          1           0.0466
     37 H7         24.3360    18.8373    60.7275 H          1           0.0488
     38 H8         23.1756    20.0240    60.0840 H          1           0.0501
     39 H9         24.2246    20.0351    62.7912 H          1           0.3816
     40 H10        23.6641    18.0854    63.1309 H          1           0.1014
     41 H11        22.3481    19.1804    63.6181 H          1           0.0979
     42 H12        19.4011    13.2775    64.5664 H          1           0.4142
     43 H13        20.3386    11.9180    64.2573 H          1           0.4106
     44 H14        24.2825    13.4668    62.5728 H          1           0.2039
     45 H15        19.5525    14.6972    66.4475 H          1           0.1333
     46 H16        17.3957    14.1016    67.3973 H          1           0.1371
     47 H17        14.9302    14.1245    67.2607 H          1           0.1380
     48 H18        11.4339    16.1664    65.2028 H          1           0.1262
     49 H19        10.2076    13.5525    66.4278 H          1           0.1050
     50 H20         9.2643    14.9243    65.6340 H          1           0.1065
     51 H21        10.5342    14.5459    63.4712 H          1           0.1088
     52 H22        11.4773    13.1741    64.2648 H          1           0.1055
     53 H23        13.0246    15.9937    63.9354 H          1           0.1358
     54 H24        15.1768    16.5958    62.9699 H          1           0.1356
     55 H25        17.6471    16.5865    63.1070 H          1           0.1346
@<TRIPOS>BOND
     1    1    2 1
     2    1   31 1
     3    1   32 1
     4    1   33 1
     5    2    3 1
     6    2    4 1
     7    2    6 1
     8    3   34 1
     9    3   35 1
    10    3   36 1
    11    4    5 1
    12    4   37 1
    13    4   38 1
    14    5   39 1
    15    6    7 1
    16    6   40 1
    17    6   41 1
    18    7   16 1
    19    7    8 1
    20    8    9 2
    21    9   10 1
    22    9   17 1
    23   10   16 ar
    24   10   11 ar
    25   11   12 1
    26   11   13 ar
    27   12   42 1
    28   12   43 1
    29   13   14 ar
    30   14   15 ar
    31   14   44 1
    32   15   16 ar
    33   17   30 ar
    34   17   18 ar
    35   18   19 ar
    36   18   45 1
    37   19   20 ar
    38   19   46 1
    39   20   29 ar
    40   20   21 ar
    41   21   22 ar
    42   21   47 1
    43   22   23 1
    44   22   27 ar
    45   23   24 1
    46   24   26 1
    47   24   25 1
    48   24   48 1
    49   25   26 1
    50   25   49 1
    51   25   50 1
    52   26   51 1
    53   26   52 1
    54   27   28 ar
    55   27   53 1
    56   28   29 ar
    57   28   54 1
    58   29   30 ar
    59   30   55 1
##########                 Name:                 1354
##########          Protonation:                   87
##########               SMILES:   c1c[nH]c2c1cc(cn2)c3c4c(ncnc4n(n3)C5CCCC5)N
##########            Long Name:   yclopentyl-3-(1H-pyrrolo[2,3-b]pyridin-5-yl)pyrazolo[3,4-d]pyrimidin-4-amine
##########          FlexRecCode: 1
##########               Number:                  211
##########   Ligand Source File: /raid1/people/rgc/Examples/tdt/part3/ligand22set/build/ligand22set-0000001.db2.g
##########           GlobalRank: 9
##########                 Rank:                    1
##########               Setnum:                   19
##########             Matchnum:                17565
##########                Cloud:                    1
##########        Electrostatic:            -7.610513
##########        Van der Waals:           -34.464470
##########  Ligand Polar Desolv:             5.480854
########## Ligand Apolar Desolv:            -3.788219
##########      Internal Energy:             0.000000
##########      Receptor Energy: 0.0
########## Receptor Desolvation:             0.000000
########## Receptor Hydrophobic:             0.000000
##########         Total Energy: -40.38
##########        Ligand Charge:             0.000000
##########            Arbitrary:    +999.9990
##########     heavy atom count:   24
##########           pose count:   10
##########        Ligand Energy:             0.000000
# num electro vdwattr vdwrepu polsolv apolsol rdesolv rhydroe totalscore fullpol fullapo
#   1    1.49   -6.85    8.43    0.30    0.51    0.00    0.00       3.88    0.47    0.81
#   2    1.41   -3.29    2.30   -1.21   -1.36    0.00    0.00      -2.15   -1.91   -2.15
#   3   -1.99   -1.89    0.42    1.12   -0.26    0.00    0.00      -2.61    1.89   -0.44
#   4    1.73   -1.71    0.37   -1.14   -1.17    0.00    0.00      -1.91   -2.13   -2.19
#   5   -1.13   -1.87    0.41    1.65    1.11    0.00    0.00       0.16    3.12    2.09
#   6    1.57   -3.28    1.24   -0.68   -1.93    0.00    0.00      -3.07   -1.12   -3.16
#   7   -2.56   -4.28    2.05    1.53    1.38    0.00    0.00      -1.88    2.30    2.08
#   8   -2.48   -2.07    0.73    0.95    0.43    0.00    0.00      -2.45    2.05    0.92
#   9   -3.61   -3.47    3.04    0.79    0.57    0.00    0.00      -2.68    1.55    1.12
#  10    2.01   -2.01    0.49   -0.52   -0.43    0.00    0.00      -0.46   -0.92   -0.75
#  11   -1.32   -2.11    0.36    0.26   -0.23    0.00    0.00      -3.04    0.41   -0.37
#  12    0.94   -2.92    0.62   -0.25   -0.47    0.00    0.00      -2.07   -0.39   -0.72
#  13   -1.87   -3.49    0.92    1.00    1.35    0.00    0.00      -2.08    1.50    2.03
#  14    2.56   -2.81    0.90   -0.32   -1.47    0.00    0.00      -1.14   -0.51   -2.31
#  15   -4.97   -2.82    0.78   -0.71    0.78    0.00    0.00      -6.95   -1.08    1.18
#  16    0.66   -2.16    0.47    0.24   -0.65    0.00    0.00      -1.44    0.37   -1.00
#  17   -2.07   -2.67    0.95   -0.19   -0.32    0.00    0.00      -4.29   -0.30   -0.51
#  18   -1.98   -2.67    1.27    0.21   -0.27    0.00    0.00      -3.44    0.35   -0.44
#  19    0.19   -2.51    0.70    0.00   -0.28    0.00    0.00      -1.90    0.00   -0.47
#  20    0.11   -1.11    0.23   -0.20   -0.16    0.00    0.00      -1.13   -0.45   -0.36
#  21    0.76   -0.95    0.24    0.10   -0.11    0.00    0.00       0.05    0.24   -0.27
#  22    1.26   -0.72    0.11   -0.02   -0.10    0.00    0.00       0.52   -0.06   -0.29
#  23    0.68   -0.67    0.07    0.00   -0.10    0.00    0.00      -0.01    0.01   -0.29
#  24    0.20   -1.15    0.23    0.08   -0.11    0.00    0.00      -0.75    0.20   -0.27
#  25   -5.02   -0.29    0.17    0.43    0.41    0.00    0.00      -4.29    0.62    0.59
#  26    0.34   -0.12    0.01   -0.09    0.20    0.00    0.00       0.35   -0.17    0.36
#  27    0.65   -1.38    1.70    0.23   -0.15    0.00    0.00       1.04    0.41   -0.28
#  28    0.68   -0.81    0.33   -0.17   -0.15    0.00    0.00      -0.12   -0.27   -0.24
#  29    3.09   -0.08    0.01    1.12    0.35    0.00    0.00       4.49    1.91    0.59
#  30    1.57   -0.42    0.08    1.07   -0.13    0.00    0.00       2.17    2.26   -0.28
#  31    1.00   -0.92    0.77    0.32   -0.15    0.00    0.00       1.02    0.60   -0.28
#  32    2.22   -0.54    0.11   -0.18   -0.15    0.00    0.00       1.46   -0.33   -0.28
#  33    0.05   -0.58    0.36   -0.12   -0.12    0.00    0.00      -0.41   -0.30   -0.28
#  34   -0.34   -0.71    1.51   -0.07   -0.09    0.00    0.00       0.29   -0.22   -0.27
#  35   -0.65   -0.27    0.04   -0.03   -0.08    0.00    0.00      -0.99   -0.10   -0.28
#  36   -1.00   -0.39    0.19    0.02   -0.09    0.00    0.00      -1.27    0.07   -0.28
#  37   -0.91   -0.15    0.00    0.02   -0.04    0.00    0.00      -1.07    0.19   -0.28
#  38   -0.34   -0.27    0.09   -0.02   -0.06    0.00    0.00      -0.60   -0.08   -0.28
#  39   -0.45   -0.17    0.01    0.02   -0.04    0.00    0.00      -0.63    0.14   -0.28
#  40   -0.16   -0.67    0.32    0.00   -0.11    0.00    0.00      -0.62    0.00   -0.28
#  41    0.08   -0.43    0.14   -0.06   -0.09    0.00    0.00      -0.37   -0.19   -0.27

@<TRIPOS>MOLECULE
             1354        87
   41    45     0     0     0



@<TRIPOS>ATOM
      1 N1         18.7569    12.2825    65.0949 N.pl3      1          -0.8288
      2 C1         19.8853    12.8921    64.5820 C.ar       1           0.5186
      3 C2         19.9325    14.2845    64.4014 C.ar       1          -0.3247
      4 C3         21.1063    14.8551    63.8753 C.ar       1           0.3755
      5 N2         22.1258    14.0521    63.5700 N.ar       1          -0.5739
      6 C4         22.0364    12.7538    63.7565 C.ar       1           0.3864
      7 N3         20.9559    12.1765    64.2521 N.ar       1          -0.6044
      8 N4         20.8943    16.1995    63.8014 N.pl3      1          -0.3684
      9 N5         19.6096    16.4944    64.2698 N.2        1          -0.2291
     10 C5         19.0038    15.3898    64.6359 C.2        1           0.1768
     11 C6         17.6311    15.2819    65.1859 C.ar       1          -0.1087
     12 C7         17.4191    14.7509    66.4616 C.ar       1           0.1522
     13 N6         16.2108    14.6463    66.9677 N.ar       1          -0.4864
     14 C8         15.1341    15.0375    66.2973 C.ar       1           0.2917
     15 N7         13.7922    15.0350    66.5951 N.pl3      1          -0.5783
     16 C9         13.0784    15.5541    65.5485 C.2        1           0.0668
     17 C10        13.9109    15.9046    64.5558 C.2        1          -0.1900
     18 C11        15.2670    15.5830    65.0055 C.ar       1          -0.1505
     19 C12        16.5357    15.7138    64.4400 C.ar       1           0.0123
     20 C13        21.8617    17.1830    63.3083 C.3        1           0.1632
     21 C14        21.7336    17.3288    61.7779 C.3        1          -0.1329
     22 C15        23.1914    17.5206    61.2913 C.3        1          -0.1220
     23 C16        23.9881    16.5644    62.2132 C.3        1          -0.1211
     24 C17        23.2952    16.6969    63.5851 C.3        1          -0.1323
     25 H1         18.7395    11.3208    65.2201 H          1           0.4120
     26 H2         17.9830    12.8166    65.3334 H          1           0.4115
     27 H3         22.8822    12.1341    63.4978 H          1           0.2050
     28 H4         18.2662    14.4192    67.0435 H          1           0.1670
     29 H5         13.4074    14.7123    67.4249 H          1           0.4233
     30 H6         12.0043    15.6651    65.5252 H          1           0.1829
     31 H7         13.6337    16.3403    63.6073 H          1           0.1556
     32 H8         16.6647    16.1329    63.4530 H          1           0.1423
     33 H9         21.6941    18.1458    63.7912 H          1           0.1144
     34 H10        21.3017    16.4271    61.3436 H          1           0.0817
     35 H11        21.1298    18.2010    61.5271 H          1           0.0740
     36 H12        23.2924    17.2238    60.2472 H          1           0.0734
     37 H13        23.5137    18.5519    61.4336 H          1           0.0721
     38 H14        23.9204    15.5391    61.8492 H          1           0.0705
     39 H15        25.0297    16.8785    62.2800 H          1           0.0704
     40 H16        23.8236    17.4242    64.2015 H          1           0.0772
     41 H17        23.2712    15.7293    64.0863 H          1           0.0746
@<TRIPOS>BOND
     1    1    2 1
     2    1   25 1
     3    1   26 1
     4    2    7 ar
     5    2    3 ar
     6    3   10 1
     7    3    4 ar
     8    4    5 ar
     9    4    8 1
    10    5    6 ar
    11    6    7 ar
    12    6   27 1
    13    8    9 1
    14    8   20 1
    15    9   10 2
    16   10   11 1
    17   11   19 ar
    18   11   12 ar
    19   12   13 ar
    20   12   28 1
    21   13   14 ar
    22   14   18 ar
    23   14   15 1
    24   15   16 1
    25   15   29 1
    26   16   17 2
    27   16   30 1
    28   17   18 1
    29   17   31 1
    30   18   19 ar
    31   19   32 1
    32   20   24 1
    33   20   21 1
    34   20   33 1
    35   21   22 1
    36   21   34 1
    37   21   35 1
    38   22   23 1
    39   22   36 1
    40   22   37 1
    41   23   24 1
    42   23   38 1
    43   23   39 1
    44   24   40 1
    45   24   41 1
##########                 Name:                 1354
##########          Protonation:                   87
##########               SMILES:   c1c[nH]c2c1cc(cn2)c3c4c(ncnc4n(n3)C5CCCC5)N
##########            Long Name:   yclopentyl-3-(1H-pyrrolo[2,3-b]pyridin-5-yl)pyrazolo[3,4-d]pyrimidin-4-amine
##########          FlexRecCode: 1
##########               Number:                  217
##########   Ligand Source File: /raid1/people/rgc/Examples/tdt/part3/ligand22set/build/ligand22set-0000001.db2.g
##########           GlobalRank: 11
##########                 Rank:                    1
##########               Setnum:                   19
##########             Matchnum:                17565
##########                Cloud:                    1
##########        Electrostatic:            -7.532716
##########        Van der Waals:           -33.835529
##########  Ligand Polar Desolv:             5.531402
########## Ligand Apolar Desolv:            -3.807848
##########      Internal Energy:             0.000000
##########      Receptor Energy: 0.0
########## Receptor Desolvation:             0.000000
########## Receptor Hydrophobic:             0.000000
##########         Total Energy: -39.64
##########        Ligand Charge:             0.000000
##########            Arbitrary:    +999.9990
##########     heavy atom count:   24
##########           pose count:   10
##########        Ligand Energy:             0.000000
# num electro vdwattr vdwrepu polsolv apolsol rdesolv rhydroe totalscore fullpol fullapo
#   1    1.49   -6.85    8.43    0.30    0.51    0.00    0.00       3.88    0.47    0.81
#   2    1.41   -3.29    2.30   -1.21   -1.36    0.00    0.00      -2.15   -1.91   -2.15
#   3   -1.99   -1.89    0.42    1.12   -0.26    0.00    0.00      -2.61    1.89   -0.44
#   4    1.73   -1.71    0.37   -1.14   -1.17    0.00    0.00      -1.91   -2.13   -2.19
#   5   -1.13   -1.87    0.41    1.65    1.11    0.00    0.00       0.16    3.12    2.09
#   6    1.57   -3.28    1.24   -0.68   -1.93    0.00    0.00      -3.08   -1.12   -3.16
#   7   -2.56   -4.28    2.05    1.53    1.38    0.00    0.00      -1.88    2.30    2.08
#   8   -2.48   -2.07    0.73    0.95    0.43    0.00    0.00      -2.44    2.05    0.92
#   9   -3.61   -3.48    3.04    0.79    0.57    0.00    0.00      -2.68    1.55    1.12
#  10    2.01   -2.01    0.49   -0.52   -0.43    0.00    0.00      -0.46   -0.92   -0.75
#  11   -1.32   -2.11    0.36    0.26   -0.23    0.00    0.00      -3.04    0.41   -0.37
#  12    0.94   -2.92    0.62   -0.25   -0.47    0.00    0.00      -2.07   -0.39   -0.72
#  13   -1.87   -3.49    0.92    1.00    1.35    0.00    0.00      -2.08    1.50    2.03
#  14    2.56   -2.81    0.90   -0.32   -1.47    0.00    0.00      -1.14   -0.51   -2.31
#  15   -4.97   -2.82    0.78   -0.71    0.78    0.00    0.00      -6.95   -1.08    1.18
#  16    0.66   -2.16    0.47    0.24   -0.65    0.00    0.00      -1.44    0.37   -1.00
#  17   -2.07   -2.67    0.95   -0.19   -0.32    0.00    0.00      -4.29   -0.30   -0.51
#  18   -1.98   -2.67    1.27    0.21   -0.27    0.00    0.00      -3.44    0.35   -0.44
#  19    0.19   -2.51    0.70    0.00   -0.28    0.00    0.00      -1.90    0.00   -0.47
#  20    0.11   -1.11    0.23   -0.20   -0.16    0.00    0.00      -1.13   -0.45   -0.36
#  21    0.75   -0.94    0.24    0.10   -0.11    0.00    0.00       0.04    0.24   -0.27
#  22    1.10   -1.01    0.44   -0.02   -0.10    0.00    0.00       0.41   -0.06   -0.29
#  23    0.81   -0.67    0.06    0.00   -0.10    0.00    0.00       0.11    0.01   -0.29
#  24    0.20   -1.14    0.23    0.08   -0.11    0.00    0.00      -0.75    0.20   -0.27
#  25   -5.02   -0.29    0.17    0.43    0.41    0.00    0.00      -4.29    0.62    0.59
#  26    0.34   -0.12    0.01   -0.09    0.20    0.00    0.00       0.35   -0.17    0.36
#  27    0.65   -1.38    1.70    0.23   -0.15    0.00    0.00       1.04    0.41   -0.28
#  28    0.68   -0.81    0.33   -0.17   -0.15    0.00    0.00      -0.12   -0.27   -0.24
#  29    3.09   -0.08    0.01    1.12    0.35    0.00    0.00       4.49    1.91    0.59
#  30    1.57   -0.42    0.08    1.07   -0.13    0.00    0.00       2.17    2.26   -0.28
#  31    1.00   -0.92    0.77    0.32   -0.15    0.00    0.00       1.02    0.60   -0.28
#  32    2.22   -0.54    0.11   -0.18   -0.15    0.00    0.00       1.46   -0.33   -0.28
#  33    0.05   -0.58    0.36   -0.12   -0.12    0.00    0.00      -0.41   -0.30   -0.28
#  34   -0.29   -0.51    0.52   -0.08   -0.10    0.00    0.00      -0.45   -0.22   -0.27
#  35   -0.75   -0.23    0.02   -0.03   -0.08    0.00    0.00      -1.06   -0.10   -0.28
#  36   -0.51   -0.81    1.85    0.02   -0.08    0.00    0.00       0.46    0.07   -0.28
#  37   -1.06   -0.27    0.06    0.05   -0.08    0.00    0.00      -1.30    0.19   -0.28
#  38   -0.44   -0.17    0.01   -0.01   -0.04    0.00    0.00      -0.65   -0.08   -0.28
#  39   -0.59   -0.21    0.02    0.03   -0.06    0.00    0.00      -0.80    0.14   -0.28
#  40    0.01   -0.82    0.63    0.00   -0.12    0.00    0.00      -0.30    0.00   -0.28
#  41   -0.03   -0.29    0.04   -0.05   -0.08    0.00    0.00      -0.41   -0.19   -0.27

@<TRIPOS>MOLECULE
             1354        87
   41    45     0     0     0



@<TRIPOS>ATOM
      1 N1         18.7568    12.2825    65.0949 N.pl3      1          -0.8288
      2 C1         19.8854    12.8922    64.5820 C.ar       1           0.5186
      3 C2         19.9325    14.2846    64.4015 C.ar       1          -0.3247
      4 C3         21.1064    14.8552    63.8754 C.ar       1           0.3755
      5 N2         22.1258    14.0522    63.5700 N.ar       1          -0.5739
      6 C4         22.0364    12.7539    63.7566 C.ar       1           0.3864
      7 N3         20.9560    12.1766    64.2521 N.ar       1          -0.6044
      8 N4         20.8944    16.1996    63.8015 N.pl3      1          -0.3684
      9 N5         19.6096    16.4945    64.2699 N.2        1          -0.2291
     10 C5         19.0039    15.3899    64.6360 C.2        1           0.1768
     11 C6         17.6311    15.2819    65.1859 C.ar       1          -0.1087
     12 C7         17.4190    14.7510    66.4616 C.ar       1           0.1522
     13 N6         16.2108    14.6465    66.9678 N.ar       1          -0.4864
     14 C8         15.1341    15.0375    66.2974 C.ar       1           0.2917
     15 N7         13.7923    15.0351    66.5951 N.pl3      1          -0.5783
     16 C9         13.0783    15.5541    65.5485 C.2        1           0.0668
     17 C10        13.9108    15.9046    64.5558 C.2        1          -0.1900
     18 C11        15.2670    15.5830    65.0054 C.ar       1          -0.1505
     19 C12        16.5357    15.7138    64.4400 C.ar       1           0.0123
     20 C13        21.8618    17.1831    63.3085 C.3        1           0.1632
     21 C14        21.7437    17.3226    61.8003 C.3        1          -0.1329
     22 C15        23.1218    16.9843    61.2262 C.3        1          -0.1220
     23 C16        24.0752    17.2956    62.4002 C.3        1          -0.1211
     24 C17        23.2832    16.7041    63.5813 C.3        1          -0.1323
     25 H1         18.7396    11.3208    65.2202 H          1           0.4120
     26 H2         17.9829    12.8166    65.3334 H          1           0.4115
     27 H3         22.8823    12.1341    63.4979 H          1           0.2050
     28 H4         18.2663    14.4193    67.0435 H          1           0.1670
     29 H5         13.4074    14.7124    67.4250 H          1           0.4233
     30 H6         12.0043    15.6651    65.5251 H          1           0.1829
     31 H7         13.6337    16.3402    63.6072 H          1           0.1556
     32 H8         16.6647    16.1329    63.4530 H          1           0.1423
     33 H9         21.6921    18.1475    63.7872 H          1           0.1144
     34 H10        20.9970    16.6272    61.4170 H          1           0.0817
     35 H11        21.4696    18.3448    61.5390 H          1           0.0740
     36 H12        23.1776    15.9304    60.9533 H          1           0.0734
     37 H13        23.3479    17.6169    60.3678 H          1           0.0721
     38 H14        25.0314    16.7877    62.2750 H          1           0.0705
     39 H15        24.2136    18.3703    62.5192 H          1           0.0704
     40 H16        23.6490    17.1001    64.5287 H          1           0.0772
     41 H17        23.3323    15.6153    63.5727 H          1           0.0746
@<TRIPOS>BOND
     1    1    2 1
     2    1   25 1
     3    1   26 1
     4    2    7 ar
     5    2    3 ar
     6    3   10 1
     7    3    4 ar
     8    4    5 ar
     9    4    8 1
    10    5    6 ar
    11    6    7 ar
    12    6   27 1
    13    8    9 1
    14    8   20 1
    15    9   10 2
    16   10   11 1
    17   11   19 ar
    18   11   12 ar
    19   12   13 ar
    20   12   28 1
    21   13   14 ar
    22   14   18 ar
    23   14   15 1
    24   15   16 1
    25   15   29 1
    26   16   17 2
    27   16   30 1
    28   17   18 1
    29   17   31 1
    30   18   19 ar
    31   19   32 1
    32   20   24 1
    33   20   21 1
    34   20   33 1
    35   21   22 1
    36   21   34 1
    37   21   35 1
    38   22   23 1
    39   22   36 1
    40   22   37 1
    41   23   24 1
    42   23   38 1
    43   23   39 1
    44   24   40 1
    45   24   41 1
##########                 Name:                 1354
##########          Protonation:                   87
##########               SMILES:   c1c[nH]c2c1cc(cn2)c3c4c(ncnc4n(n3)C5CCCC5)N
##########            Long Name:   yclopentyl-3-(1H-pyrrolo[2,3-b]pyridin-5-yl)pyrazolo[3,4-d]pyrimidin-4-amine
##########          FlexRecCode: 1
##########               Number:                  211
##########   Ligand Source File: /raid1/people/rgc/Examples/tdt/part3/ligand22set/build/ligand22set-0000001.db2.g
##########           GlobalRank: 11
##########                 Rank:                    2
##########               Setnum:                   19
##########             Matchnum:                27264
##########                Cloud:                    1
##########        Electrostatic:            -7.043726
##########        Van der Waals:           -34.258789
##########  Ligand Polar Desolv:             5.547866
########## Ligand Apolar Desolv:            -3.790040
##########      Internal Energy:             0.000000
##########      Receptor Energy: 0.0
########## Receptor Desolvation:             0.000000
########## Receptor Hydrophobic:             0.000000
##########         Total Energy: -39.54
##########        Ligand Charge:             0.000000
##########            Arbitrary:    +999.9990
##########     heavy atom count:   24
##########           pose count:   10
##########        Ligand Energy:             0.000000
# num electro vdwattr vdwrepu polsolv apolsol rdesolv rhydroe totalscore fullpol fullapo
#   1    1.62   -7.12    9.22    0.30    0.51    0.00    0.00       4.53    0.47    0.81
#   2    1.32   -3.32    2.24   -1.21   -1.36    0.00    0.00      -2.34   -1.91   -2.15
#   3   -1.98   -1.95    0.47    1.11   -0.26    0.00    0.00      -2.60    1.89   -0.44
#   4    1.78   -1.74    0.40   -1.14   -1.18    0.00    0.00      -1.89   -2.13   -2.19
#   5   -1.19   -1.88    0.40    1.67    1.12    0.00    0.00       0.12    3.12    2.09
#   6    1.59   -3.30    1.26   -0.69   -1.94    0.00    0.00      -3.08   -1.12   -3.16
#   7   -2.46   -4.29    2.00    1.53    1.38    0.00    0.00      -1.84    2.30    2.08
#   8   -2.56   -2.29    1.05    0.95    0.43    0.00    0.00      -2.42    2.05    0.92
#   9   -3.47   -3.80    3.96    0.80    0.58    0.00    0.00      -1.93    1.55    1.12
#  10    1.98   -2.10    0.59   -0.52   -0.43    0.00    0.00      -0.48   -0.92   -0.75
#  11   -1.27   -2.13    0.34    0.26   -0.24    0.00    0.00      -3.03    0.41   -0.37
#  12    0.80   -3.11    0.73   -0.25   -0.47    0.00    0.00      -2.30   -0.39   -0.72
#  13   -1.26   -3.77    1.12    1.01    1.37    0.00    0.00      -1.54    1.50    2.03
#  14    2.36   -2.92    0.88   -0.32   -1.47    0.00    0.00      -1.47   -0.51   -2.31
#  15   -4.75   -3.11    1.05   -0.71    0.78    0.00    0.00      -6.75   -1.08    1.18
#  16    0.66   -2.19    0.44    0.24   -0.65    0.00    0.00      -1.50    0.37   -1.00
#  17   -2.18   -2.50    0.74   -0.19   -0.32    0.00    0.00      -4.45   -0.30   -0.51
#  18   -1.99   -2.57    1.00    0.22   -0.27    0.00    0.00      -3.62    0.35   -0.44
#  19    0.19   -2.45    0.65    0.00   -0.28    0.00    0.00      -1.89    0.00   -0.47
#  20    0.20   -1.24    0.34   -0.20   -0.16    0.00    0.00      -1.06   -0.45   -0.36
#  21    0.66   -0.89    0.16    0.10   -0.12    0.00    0.00      -0.07    0.24   -0.27
#  22    1.19   -0.67    0.07   -0.02   -0.11    0.00    0.00       0.47   -0.06   -0.29
#  23    0.65   -0.67    0.07    0.00   -0.10    0.00    0.00      -0.05    0.01   -0.29
#  24    0.14   -1.27    0.32    0.08   -0.11    0.00    0.00      -0.85    0.20   -0.27
#  25   -5.34   -0.33    0.23    0.44    0.42    0.00    0.00      -4.59    0.62    0.59
#  26    0.25   -0.12    0.02   -0.10    0.20    0.00    0.00       0.25   -0.17    0.36
#  27    0.77   -1.46    2.01    0.23   -0.16    0.00    0.00       1.40    0.41   -0.28
#  28    0.55   -0.92    0.50   -0.17   -0.15    0.00    0.00      -0.19   -0.27   -0.24
#  29    2.92   -0.09    0.01    1.15    0.36    0.00    0.00       4.35    1.91    0.59
#  30    1.59   -0.45    0.10    1.08   -0.13    0.00    0.00       2.20    2.26   -0.28
#  31    1.14   -0.80    0.54    0.32   -0.15    0.00    0.00       1.05    0.60   -0.28
#  32    2.41   -0.52    0.10   -0.17   -0.15    0.00    0.00       1.67   -0.33   -0.28
#  33    0.13   -0.73    0.73   -0.13   -0.12    0.00    0.00      -0.12   -0.30   -0.28
#  34   -0.30   -0.54    0.72   -0.07   -0.09    0.00    0.00      -0.28   -0.22   -0.27
#  35   -0.57   -0.29    0.07   -0.03   -0.08    0.00    0.00      -0.91   -0.10   -0.28
#  36   -0.98   -0.32    0.10    0.02   -0.08    0.00    0.00      -1.26    0.07   -0.28
#  37   -0.85   -0.15    0.00    0.03   -0.04    0.00    0.00      -1.01    0.19   -0.28
#  38   -0.34   -0.26    0.08   -0.02   -0.06    0.00    0.00      -0.60   -0.08   -0.28
#  39   -0.44   -0.18    0.02    0.02   -0.04    0.00    0.00      -0.63    0.14   -0.28
#  40   -0.10   -0.81    0.54    0.00   -0.12    0.00    0.00      -0.49    0.00   -0.28
#  41    0.10   -0.47    0.18   -0.07   -0.09    0.00    0.00      -0.35   -0.19   -0.27

@<TRIPOS>MOLECULE
             1354        87
   41    45     0     0     0



@<TRIPOS>ATOM
      1 N1         18.7151    12.2366    65.0652 N.pl3      1          -0.8288
      2 C1         19.8466    12.8539    64.5684 C.ar       1           0.5186
      3 C2         19.9160    14.2530    64.4630 C.ar       1          -0.3247
      4 C3         21.0920    14.8314    63.9502 C.ar       1           0.3755
      5 N2         22.0922    14.0289    63.5857 N.ar       1          -0.5739
      6 C4         21.9824    12.7240    63.7028 C.ar       1           0.3864
      7 N3         20.8992    12.1391    64.1833 N.ar       1          -0.6044
      8 N4         20.9031    16.1812    63.9528 N.pl3      1          -0.3684
      9 N5         19.6309    16.4720    64.4566 N.2        1          -0.2291
     10 C5         19.0109    15.3596    64.7717 C.2        1           0.1768
     11 C6         17.6448    15.2454    65.3367 C.ar       1          -0.1087
     12 C7         17.4422    14.6492    66.5849 C.ar       1           0.1522
     13 N6         16.2399    14.5378    67.1035 N.ar       1          -0.4864
     14 C8         15.1606    14.9833    66.4724 C.ar       1           0.2917
     15 N7         13.8234    14.9876    66.7907 N.pl3      1          -0.5783
     16 C9         13.1035    15.5752    65.7853 C.2        1           0.0668
     17 C10        13.9274    15.9650    64.8001 C.2        1          -0.1900
     18 C11        15.2840    15.5962    65.2102 C.ar       1          -0.1505
     19 C12        16.5464    15.7360    64.6327 C.ar       1           0.0123
     20 C13        21.8805    17.1735    63.4986 C.3        1           0.1632
     21 C14        21.7324    17.4047    61.9806 C.3        1          -0.1329
     22 C15        23.1861    17.5978    61.4822 C.3        1          -0.1220
     23 C16        23.9790    16.5793    62.3382 C.3        1          -0.1211
     24 C17        23.3090    16.6485    63.7260 C.3        1          -0.1323
     25 H1         18.6824    11.2699    65.1383 H          1           0.4120
     26 H2         17.9545    12.7700    65.3445 H          1           0.4115
     27 H3         22.8130    12.1050    63.3975 H          1           0.2050
     28 H4         18.2918    14.2718    67.1344 H          1           0.1670
     29 H5         13.4452    14.6267    67.6078 H          1           0.4233
     30 H6         12.0314    15.7056    65.7850 H          1           0.1829
     31 H7         13.6441    16.4565    63.8811 H          1           0.1556
     32 H8         16.6682    16.2061    63.6681 H          1           0.1423
     33 H9         21.7374    18.1112    64.0356 H          1           0.1144
     34 H10        21.2780    16.5356    61.5048 H          1           0.0817
     35 H11        21.1407    18.2995    61.7870 H          1           0.0740
     36 H12        23.2662    17.3568    60.4221 H          1           0.0734
     37 H13        23.5289    18.6142    61.6752 H          1           0.0721
     38 H14        23.8876    15.5767    61.9201 H          1           0.0705
     39 H15        25.0270    16.8714    62.4054 H          1           0.0704
     40 H16        23.8595    17.3319    64.3725 H          1           0.0772
     41 H17        23.2751    15.6556    64.1742 H          1           0.0746
@<TRIPOS>BOND
     1    1    2 1
     2    1   25 1
     3    1   26 1
     4    2    7 ar
     5    2    3 ar
     6    3   10 1
     7    3    4 ar
     8    4    5 ar
     9    4    8 1
    10    5    6 ar
    11    6    7 ar
    12    6   27 1
    13    8    9 1
    14    8   20 1
    15    9   10 2
    16   10   11 1
    17   11   19 ar
    18   11   12 ar
    19   12   13 ar
    20   12   28 1
    21   13   14 ar
    22   14   18 ar
    23   14   15 1
    24   15   16 1
    25   15   29 1
    26   16   17 2
    27   16   30 1
    28   17   18 1
    29   17   31 1
    30   18   19 ar
    31   19   32 1
    32   20   24 1
    33   20   21 1
    34   20   33 1
    35   21   22 1
    36   21   34 1
    37   21   35 1
    38   22   23 1
    39   22   36 1
    40   22   37 1
    41   23   24 1
    42   23   38 1
    43   23   39 1
    44   24   40 1
    45   24   41 1
##########                 Name:                 1354
##########          Protonation:                   87
##########               SMILES:   c1c[nH]c2c1cc(cn2)c3c4c(ncnc4n(n3)C5CCCC5)N
##########            Long Name:   yclopentyl-3-(1H-pyrrolo[2,3-b]pyridin-5-yl)pyrazolo[3,4-d]pyrimidin-4-amine
##########          FlexRecCode: 1
##########               Number:                  217
##########   Ligand Source File: /raid1/people/rgc/Examples/tdt/part3/ligand22set/build/ligand22set-0000001.db2.g
##########           GlobalRank: 12
##########                 Rank:                    2
##########               Setnum:                   19
##########             Matchnum:                27264
##########                Cloud:                    1
##########        Electrostatic:            -6.955324
##########        Van der Waals:           -33.431171
##########  Ligand Polar Desolv:             5.593529
########## Ligand Apolar Desolv:            -3.806632
##########      Internal Energy:             0.000000
##########      Receptor Energy: 0.0
########## Receptor Desolvation:             0.000000
########## Receptor Hydrophobic:             0.000000
##########         Total Energy: -38.6
##########        Ligand Charge:             0.000000
##########            Arbitrary:    +999.9990
##########     heavy atom count:   24
##########           pose count:   10
##########        Ligand Energy:             0.000000
# num electro vdwattr vdwrepu polsolv apolsol rdesolv rhydroe totalscore fullpol fullapo
#   1    1.62   -7.12    9.22    0.30    0.51    0.00    0.00       4.53    0.47    0.81
#   2    1.32   -3.32    2.23   -1.21   -1.36    0.00    0.00      -2.34   -1.91   -2.15
#   3   -1.98   -1.95    0.47    1.11   -0.26    0.00    0.00      -2.60    1.89   -0.44
#   4    1.78   -1.74    0.40   -1.14   -1.18    0.00    0.00      -1.89   -2.13   -2.19
#   5   -1.19   -1.88    0.40    1.67    1.12    0.00    0.00       0.12    3.12    2.09
#   6    1.59   -3.30    1.26   -0.69   -1.94    0.00    0.00      -3.08   -1.12   -3.16
#   7   -2.46   -4.29    2.00    1.53    1.38    0.00    0.00      -1.84    2.30    2.08
#   8   -2.56   -2.29    1.05    0.95    0.43    0.00    0.00      -2.42    2.05    0.92
#   9   -3.47   -3.80    3.97    0.80    0.58    0.00    0.00      -1.93    1.55    1.12
#  10    1.98   -2.10    0.59   -0.52   -0.43    0.00    0.00      -0.48   -0.92   -0.75
#  11   -1.27   -2.13    0.34    0.26   -0.24    0.00    0.00      -3.03    0.41   -0.37
#  12    0.80   -3.11    0.73   -0.25   -0.47    0.00    0.00      -2.30   -0.39   -0.72
#  13   -1.26   -3.77    1.12    1.01    1.37    0.00    0.00      -1.54    1.50    2.03
#  14    2.36   -2.92    0.88   -0.32   -1.47    0.00    0.00      -1.47   -0.51   -2.31
#  15   -4.75   -3.11    1.05   -0.71    0.78    0.00    0.00      -6.75   -1.08    1.18
#  16    0.66   -2.19    0.44    0.24   -0.65    0.00    0.00      -1.50    0.37   -1.00
#  17   -2.18   -2.50    0.74   -0.19   -0.32    0.00    0.00      -4.45   -0.30   -0.51
#  18   -1.99   -2.57    1.00    0.22   -0.27    0.00    0.00      -3.62    0.35   -0.44
#  19    0.19   -2.45    0.65    0.00   -0.28    0.00    0.00      -1.89    0.00   -0.47
#  20    0.20   -1.24    0.34   -0.20   -0.16    0.00    0.00      -1.06   -0.45   -0.36
#  21    0.65   -0.88    0.16    0.10   -0.12    0.00    0.00      -0.09    0.24   -0.27
#  22    1.05   -0.88    0.28   -0.02   -0.10    0.00    0.00       0.33   -0.06   -0.29
#  23    0.77   -0.72    0.08    0.00   -0.10    0.00    0.00       0.02    0.01   -0.29
#  24    0.14   -1.27    0.31    0.08   -0.11    0.00    0.00      -0.85    0.20   -0.27
#  25   -5.34   -0.33    0.23    0.44    0.42    0.00    0.00      -4.59    0.62    0.59
#  26    0.25   -0.12    0.02   -0.10    0.20    0.00    0.00       0.25   -0.17    0.36
#  27    0.77   -1.46    2.01    0.23   -0.16    0.00    0.00       1.39    0.41   -0.28
#  28    0.55   -0.92    0.50   -0.17   -0.15    0.00    0.00      -0.19   -0.27   -0.24
#  29    2.92   -0.09    0.01    1.15    0.36    0.00    0.00       4.35    1.91    0.59
#  30    1.59   -0.45    0.10    1.08   -0.13    0.00    0.00       2.20    2.26   -0.28
#  31    1.14   -0.80    0.54    0.32   -0.15    0.00    0.00       1.05    0.60   -0.28
#  32    2.41   -0.52    0.10   -0.17   -0.15    0.00    0.00       1.67   -0.33   -0.28
#  33    0.13   -0.72    0.72   -0.13   -0.12    0.00    0.00      -0.12   -0.30   -0.28
#  34   -0.23   -0.41    0.26   -0.07   -0.09    0.00    0.00      -0.55   -0.22   -0.27
#  35   -0.68   -0.25    0.03   -0.03   -0.07    0.00    0.00      -0.99   -0.10   -0.28
#  36   -0.51   -0.68    1.20    0.02   -0.08    0.00    0.00      -0.05    0.07   -0.28
#  37   -1.02   -0.23    0.03    0.05   -0.07    0.00    0.00      -1.24    0.19   -0.28
#  38   -0.43   -0.18    0.02   -0.01   -0.04    0.00    0.00      -0.65   -0.08   -0.28
#  39   -0.55   -0.25    0.03    0.03   -0.06    0.00    0.00      -0.80    0.14   -0.28
#  40    0.07   -1.01    1.25    0.00   -0.13    0.00    0.00       0.18    0.00   -0.28
#  41   -0.01   -0.30    0.05   -0.06   -0.08    0.00    0.00      -0.40   -0.19   -0.27

@<TRIPOS>MOLECULE
             1354        87
   41    45     0     0     0



@<TRIPOS>ATOM
      1 N1         18.7150    12.2366    65.0649 N.pl3      1          -0.8288
      2 C1         19.8467    12.8541    64.5681 C.ar       1           0.5186
      3 C2         19.9160    14.2532    64.4630 C.ar       1          -0.3247
      4 C3         21.0921    14.8316    63.9502 C.ar       1           0.3755
      5 N2         22.0923    14.0292    63.5855 N.ar       1          -0.5739
      6 C4         21.9824    12.7243    63.7027 C.ar       1           0.3864
      7 N3         20.8992    12.1394    64.1830 N.ar       1          -0.6044
      8 N4         20.9032    16.1814    63.9529 N.pl3      1          -0.3684
      9 N5         19.6309    16.4722    64.4569 N.2        1          -0.2291
     10 C5         19.0110    15.3597    64.7718 C.2        1           0.1768
     11 C6         17.6448    15.2454    65.3367 C.ar       1          -0.1087
     12 C7         17.4422    14.6492    66.5848 C.ar       1           0.1522
     13 N6         16.2399    14.5378    67.1035 N.ar       1          -0.4864
     14 C8         15.1605    14.9833    66.4725 C.ar       1           0.2917
     15 N7         13.8235    14.9875    66.7907 N.pl3      1          -0.5783
     16 C9         13.1035    15.5751    65.7853 C.2        1           0.0668
     17 C10        13.9274    15.9651    64.8001 C.2        1          -0.1900
     18 C11        15.2841    15.5962    65.2102 C.ar       1          -0.1505
     19 C12        16.5464    15.7361    64.6328 C.ar       1           0.0123
     20 C13        21.8806    17.1737    63.4989 C.3        1           0.1632
     21 C14        21.7427    17.3975    62.0027 C.3        1          -0.1329
     22 C15        23.1059    17.0675    61.3893 C.3        1          -0.1220
     23 C16        24.0820    17.2979    62.5633 C.3        1          -0.1211
     24 C17        23.2971    16.6563    63.7229 C.3        1          -0.1323
     25 H1         18.6825    11.2700    65.1379 H          1           0.4120
     26 H2         17.9545    12.7700    65.3443 H          1           0.4115
     27 H3         22.8131    12.1052    63.3973 H          1           0.2050
     28 H4         18.2919    14.2718    67.1343 H          1           0.1670
     29 H5         13.4452    14.6266    67.6078 H          1           0.4233
     30 H6         12.0314    15.7056    65.7849 H          1           0.1829
     31 H7         13.6441    16.4566    63.8811 H          1           0.1556
     32 H8         16.6683    16.2062    63.6681 H          1           0.1423
     33 H9         21.7354    18.1133    64.0320 H          1           0.1144
     34 H10        20.9781    16.7369    61.5939 H          1           0.0817
     35 H11        21.4831    18.4369    61.8017 H          1           0.0740
     36 H12        23.1387    16.0293    61.0587 H          1           0.0734
     37 H13        23.3305    17.7422    60.5631 H          1           0.0721
     38 H14        25.0270    16.7813    62.3956 H          1           0.0705
     39 H15        24.2414    18.3619    62.7385 H          1           0.0704
     40 H16        23.6839    16.9935    64.6844 H          1           0.0772
     41 H17        23.3265    15.5689    63.6542 H          1           0.0746
@<TRIPOS>BOND
     1    1    2 1
     2    1   25 1
     3    1   26 1
     4    2    7 ar
     5    2    3 ar
     6    3   10 1
     7    3    4 ar
     8    4    5 ar
     9    4    8 1
    10    5    6 ar
    11    6    7 ar
    12    6   27 1
    13    8    9 1
    14    8   20 1
    15    9   10 2
    16   10   11 1
    17   11   19 ar
    18   11   12 ar
    19   12   13 ar
    20   12   28 1
    21   13   14 ar
    22   14   18 ar
    23   14   15 1
    24   15   16 1
    25   15   29 1
    26   16   17 2
    27   16   30 1
    28   17   18 1
    29   17   31 1
    30   18   19 ar
    31   19   32 1
    32   20   24 1
    33   20   21 1
    34   20   33 1
    35   21   22 1
    36   21   34 1
    37   21   35 1
    38   22   23 1
    39   22   36 1
    40   22   37 1
    41   23   24 1
    42   23   38 1
    43   23   39 1
    44   24   40 1
    45   24   41 1
##########                 Name:                 1354
##########          Protonation:                   87
##########               SMILES:   c1c[nH]c2c1cc(cn2)c3c4c(ncnc4n(n3)C5CCCC5)N
##########            Long Name:   yclopentyl-3-(1H-pyrrolo[2,3-b]pyridin-5-yl)pyrazolo[3,4-d]pyrimidin-4-amine
##########          FlexRecCode: 1
##########               Number:                  211
##########   Ligand Source File: /raid1/people/rgc/Examples/tdt/part3/ligand22set/build/ligand22set-0000001.db2.g
##########           GlobalRank: 13
##########                 Rank:                    3
##########               Setnum:                   19
##########             Matchnum:                40337
##########                Cloud:                    1
##########        Electrostatic:            -7.955615
##########        Van der Waals:           -32.299759
##########  Ligand Polar Desolv:             5.512470
########## Ligand Apolar Desolv:            -3.817859
##########      Internal Energy:             0.000000
##########      Receptor Energy: 0.0
########## Receptor Desolvation:             0.000000
########## Receptor Hydrophobic:             0.000000
##########         Total Energy: -38.56
##########        Ligand Charge:             0.000000
##########            Arbitrary:    +999.9990
##########     heavy atom count:   24
##########           pose count:   10
##########        Ligand Energy:             0.000000
# num electro vdwattr vdwrepu polsolv apolsol rdesolv rhydroe totalscore fullpol fullapo
#   1    1.37   -6.77    8.54    0.30    0.52    0.00    0.00       3.95    0.47    0.81
#   2    1.36   -2.99    1.29   -1.21   -1.36    0.00    0.00      -2.91   -1.91   -2.15
#   3   -1.94   -1.76    0.29    1.12   -0.26    0.00    0.00      -2.56    1.89   -0.44
#   4    1.57   -1.64    0.38   -1.15   -1.18    0.00    0.00      -2.01   -2.13   -2.19
#   5   -0.82   -2.06    0.91    1.66    1.11    0.00    0.00       0.80    3.12    2.09
#   6    1.44   -3.36    1.38   -0.69   -1.93    0.00    0.00      -3.16   -1.12   -3.16
#   7   -2.52   -4.09    1.69    1.53    1.39    0.00    0.00      -2.00    2.30    2.08
#   8   -2.30   -1.77    0.40    0.94    0.42    0.00    0.00      -2.32    2.05    0.92
#   9   -3.66   -3.12    2.31    0.79    0.57    0.00    0.00      -3.11    1.55    1.12
#  10    2.01   -1.90    0.37   -0.52   -0.43    0.00    0.00      -0.46   -0.92   -0.75
#  11   -1.32   -2.09    0.36    0.26   -0.23    0.00    0.00      -3.02    0.41   -0.37
#  12    0.97   -2.86    0.61   -0.25   -0.46    0.00    0.00      -2.00   -0.39   -0.72
#  13   -1.82   -3.48    0.91    1.00    1.36    0.00    0.00      -2.02    1.50    2.03
#  14    2.51   -2.83    0.87   -0.32   -1.47    0.00    0.00      -1.25   -0.51   -2.31
#  15   -4.86   -2.94    0.83   -0.71    0.78    0.00    0.00      -6.90   -1.08    1.18
#  16    0.66   -2.17    0.44    0.24   -0.65    0.00    0.00      -1.48    0.37   -1.00
#  17   -2.11   -2.57    0.85   -0.19   -0.32    0.00    0.00      -4.34   -0.30   -0.51
#  18   -1.98   -2.65    1.22    0.21   -0.27    0.00    0.00      -3.47    0.35   -0.44
#  19    0.19   -2.52    0.72    0.00   -0.28    0.00    0.00      -1.90    0.00   -0.47
#  20   -0.03   -0.97    0.15   -0.20   -0.16    0.00    0.00      -1.20   -0.45   -0.36
#  21    0.90   -1.10    0.43    0.10   -0.12    0.00    0.00       0.21    0.24   -0.27
#  22    1.44   -0.93    0.26   -0.02   -0.11    0.00    0.00       0.64   -0.06   -0.29
#  23    0.79   -0.75    0.16    0.00   -0.10    0.00    0.00       0.11    0.01   -0.29
#  24    0.32   -0.88    0.10    0.08   -0.11    0.00    0.00      -0.49    0.20   -0.27
#  25   -5.31   -0.32    0.23    0.43    0.41    0.00    0.00      -4.55    0.62    0.59
#  26    0.59   -0.12    0.01   -0.09    0.20    0.00    0.00       0.59   -0.17    0.36
#  27    0.54   -1.67    3.10    0.24   -0.16    0.00    0.00       2.05    0.41   -0.28
#  28    0.75   -0.80    0.39   -0.16   -0.15    0.00    0.00       0.03   -0.27   -0.24
#  29    2.92   -0.08    0.01    1.14    0.35    0.00    0.00       4.34    1.91    0.59
#  30    1.59   -0.43    0.09    1.07   -0.13    0.00    0.00       2.20    2.26   -0.28
#  31    1.11   -0.81    0.52    0.32   -0.15    0.00    0.00       0.99    0.60   -0.28
#  32    2.17   -0.56    0.12   -0.18   -0.15    0.00    0.00       1.41   -0.33   -0.28
#  33   -0.04   -0.45    0.16   -0.11   -0.11    0.00    0.00      -0.55   -0.30   -0.28
#  34   -0.40   -0.97    3.11   -0.08   -0.10    0.00    0.00       1.54   -0.22   -0.27
#  35   -0.73   -0.28    0.04   -0.03   -0.09    0.00    0.00      -1.09   -0.10   -0.28
#  36   -1.14   -0.64    0.69    0.03   -0.10    0.00    0.00      -1.16    0.07   -0.28
#  37   -1.05   -0.16    0.01    0.03   -0.05    0.00    0.00      -1.22    0.19   -0.28
#  38   -0.39   -0.43    0.37   -0.02   -0.08    0.00    0.00      -0.54   -0.08   -0.28
#  39   -0.49   -0.14    0.01    0.02   -0.04    0.00    0.00      -0.64    0.14   -0.28
#  40   -0.24   -0.43    0.11    0.00   -0.09    0.00    0.00      -0.66    0.00   -0.28
#  41    0.00   -0.30    0.05   -0.06   -0.08    0.00    0.00      -0.39   -0.19   -0.27

@<TRIPOS>MOLECULE
             1354        87
   41    45     0     0     0



@<TRIPOS>ATOM
      1 N1         18.7593    12.2600    64.9350 N.pl3      1          -0.8288
      2 C1         19.8595    12.8652    64.3593 C.ar       1           0.5186
      3 C2         19.9032    14.2577    64.1788 C.ar       1          -0.3247
      4 C3         21.0477    14.8237    63.5872 C.ar       1           0.3755
      5 N2         22.0439    14.0163    63.2224 N.ar       1          -0.5739
      6 C4         21.9589    12.7180    63.4114 C.ar       1           0.3864
      7 N3         20.9058    12.1450    63.9671 N.ar       1          -0.6044
      8 N4         20.8386    16.1692    63.5281 N.pl3      1          -0.3684
      9 N5         19.5844    16.4694    64.0700 N.2        1          -0.2291
     10 C5         18.9951    15.3670    64.4683 C.2        1           0.1768
     11 C6         17.6557    15.2647    65.0960 C.ar       1          -0.1087
     12 C7         17.5146    14.7320    66.3809 C.ar       1           0.1522
     13 N6         16.3369    14.6323    66.9553 N.ar       1          -0.4864
     14 C8         15.2254    15.0301    66.3485 C.ar       1           0.2917
     15 N7         13.9029    15.0337    66.7229 N.pl3      1          -0.5783
     16 C9         13.1327    15.5585    65.7200 C.2        1           0.0668
     17 C10        13.9086    15.9069    64.6818 C.2        1          -0.1900
     18 C11        15.2866    15.5778    65.0522 C.ar       1          -0.1505
     19 C12        16.5214    15.7035    64.4151 C.ar       1           0.0123
     20 C13        21.7810    17.1490    62.9821 C.3        1           0.1632
     21 C14        21.5659    17.2987    61.4618 C.3        1          -0.1329
     22 C15        22.9944    17.4843    60.8926 C.3        1          -0.1220
     23 C16        23.8379    16.5223    61.7655 C.3        1          -0.1211
     24 C17        23.2255    16.6552    63.1752 C.3        1          -0.1323
     25 H1         18.7443    11.2981    65.0593 H          1           0.4120
     26 H2         18.0031    12.7974    65.2186 H          1           0.4115
     27 H3         22.7853    12.0947    63.1034 H          1           0.2050
     28 H4         18.3921    14.3949    66.9125 H          1           0.1670
     29 H5         13.5647    14.7111    67.5729 H          1           0.4233
     30 H6         12.0596    15.6748    65.7587 H          1           0.1829
     31 H7         13.5796    16.3460    63.7516 H          1           0.1556
     32 H8         16.5956    16.1241    63.4231 H          1           0.1423
     33 H9         21.6462    18.1116    63.4755 H          1           0.1144
     34 H10        21.1053    16.4000    61.0514 H          1           0.0817
     35 H11        20.9532    18.1743    61.2477 H          1           0.0740
     36 H12        23.0337    17.1893    59.8440 H          1           0.0734
     37 H13        23.3295    18.5138    61.0181 H          1           0.0721
     38 H14        23.7442    15.4981    61.4041 H          1           0.0705
     39 H15        24.8832    16.8311    61.7730 H          1           0.0704
     40 H16        23.7921    17.3786    63.7615 H          1           0.0772
     41 H17        23.2255    15.6867    63.6751 H          1           0.0746
@<TRIPOS>BOND
     1    1    2 1
     2    1   25 1
     3    1   26 1
     4    2    7 ar
     5    2    3 ar
     6    3   10 1
     7    3    4 ar
     8    4    5 ar
     9    4    8 1
    10    5    6 ar
    11    6    7 ar
    12    6   27 1
    13    8    9 1
    14    8   20 1
    15    9   10 2
    16   10   11 1
    17   11   19 ar
    18   11   12 ar
    19   12   13 ar
    20   12   28 1
    21   13   14 ar
    22   14   18 ar
    23   14   15 1
    24   15   16 1
    25   15   29 1
    26   16   17 2
    27   16   30 1
    28   17   18 1
    29   17   31 1
    30   18   19 ar
    31   19   32 1
    32   20   24 1
    33   20   21 1
    34   20   33 1
    35   21   22 1
    36   21   34 1
    37   21   35 1
    38   22   23 1
    39   22   36 1
    40   22   37 1
    41   23   24 1
    42   23   38 1
    43   23   39 1
    44   24   40 1
    45   24   41 1
##########                 Name:                 1354
##########          Protonation:                   87
##########               SMILES:   c1c[nH]c2c1cc(cn2)c3c4c(ncnc4n(n3)C5CCCC5)N
##########            Long Name:   yclopentyl-3-(1H-pyrrolo[2,3-b]pyridin-5-yl)pyrazolo[3,4-d]pyrimidin-4-amine
##########          FlexRecCode: 1
##########               Number:                  214
##########   Ligand Source File: /raid1/people/rgc/Examples/tdt/part3/ligand22set/build/ligand22set-0000001.db2.g
##########           GlobalRank: 13
##########                 Rank:                    1
##########               Setnum:                   15
##########             Matchnum:                45529
##########                Cloud:                    1
##########        Electrostatic:            -8.645485
##########        Van der Waals:           -31.130737
##########  Ligand Polar Desolv:             5.432285
########## Ligand Apolar Desolv:            -3.886589
##########      Internal Energy:             0.000000
##########      Receptor Energy: 0.0
########## Receptor Desolvation:             0.000000
########## Receptor Hydrophobic:             0.000000
##########         Total Energy: -38.23
##########        Ligand Charge:             0.000000
##########            Arbitrary:    +999.9990
##########     heavy atom count:   24
##########           pose count:   10
##########        Ligand Energy:             0.000000
# num electro vdwattr vdwrepu polsolv apolsol rdesolv rhydroe totalscore fullpol fullapo
#   1    1.62   -6.35    7.22    0.30    0.52    0.00    0.00       3.32    0.47    0.81
#   2    1.43   -2.95    1.18   -1.22   -1.38    0.00    0.00      -2.94   -1.91   -2.15
#   3   -1.80   -1.72    0.26    1.13   -0.26    0.00    0.00      -2.40    1.89   -0.44
#   4    1.30   -1.71    0.58   -1.16   -1.19    0.00    0.00      -2.18   -2.13   -2.19
#   5   -0.48   -2.20    1.13    1.63    1.09    0.00    0.00       1.17    3.12    2.09
#   6    1.46   -3.77    1.94   -0.68   -1.92    0.00    0.00      -2.97   -1.12   -3.16
#   7   -3.08   -4.50    2.32    1.53    1.38    0.00    0.00      -2.36    2.30    2.08
#   8   -1.78   -1.61    0.31    0.91    0.41    0.00    0.00      -1.75    2.05    0.92
#   9   -3.33   -2.61    1.44    0.77    0.56    0.00    0.00      -3.16    1.55    1.12
#  10    1.89   -1.79    0.31   -0.51   -0.42    0.00    0.00      -0.52   -0.92   -0.75
#  11   -1.30   -2.05    0.38    0.25   -0.23    0.00    0.00      -2.94    0.41   -0.37
#  12    1.06   -2.71    0.55   -0.25   -0.46    0.00    0.00      -1.80   -0.39   -0.72
#  13   -2.18   -3.27    0.82    0.99    1.35    0.00    0.00      -2.29    1.50    2.03
#  14    2.60   -2.84    1.03   -0.33   -1.47    0.00    0.00      -1.01   -0.51   -2.31
#  15   -4.94   -2.76    0.70   -0.71    0.77    0.00    0.00      -6.93   -1.08    1.18
#  16    0.67   -2.19    0.58    0.24   -0.65    0.00    0.00      -1.36    0.37   -1.00
#  17   -2.07   -2.83    1.36   -0.18   -0.31    0.00    0.00      -4.02   -0.30   -0.51
#  18   -1.95   -2.87    1.77    0.21   -0.27    0.00    0.00      -3.11    0.35   -0.44
#  19    0.18   -2.60    0.84    0.00   -0.28    0.00    0.00      -1.86    0.00   -0.47
#  20   -0.26   -0.87    0.13   -0.19   -0.15    0.00    0.00      -1.35   -0.45   -0.36
#  21    0.56   -0.80    0.17    0.09   -0.10    0.00    0.00      -0.08    0.24   -0.27
#  22    0.93   -0.64    0.06   -0.02   -0.09    0.00    0.00       0.23   -0.06   -0.29
#  23    0.83   -1.20    0.21    0.00   -0.12    0.00    0.00      -0.27    0.01   -0.29
#  24    0.24   -1.60    0.57    0.09   -0.13    0.00    0.00      -0.82    0.20   -0.27
#  25   -5.61   -0.34    0.26    0.43    0.41    0.00    0.00      -4.84    0.62    0.59
#  26    0.48   -0.10    0.01   -0.09    0.20    0.00    0.00       0.50   -0.17    0.36
#  27    0.15   -2.15    6.53    0.23   -0.16    0.00    0.00       4.61    0.41   -0.28
#  28    0.89   -0.77    0.42   -0.16   -0.14    0.00    0.00       0.23   -0.27   -0.24
#  29    2.91   -0.07    0.00    1.11    0.34    0.00    0.00       4.30    1.91    0.59
#  30    1.60   -0.39    0.06    1.07   -0.13    0.00    0.00       2.21    2.26   -0.28
#  31    1.10   -0.88    0.62    0.32   -0.15    0.00    0.00       1.00    0.60   -0.28
#  32    1.96   -0.60    0.16   -0.18   -0.15    0.00    0.00       1.19   -0.33   -0.28
#  33   -0.63   -0.25    0.03   -0.08   -0.08    0.00    0.00      -1.00   -0.30   -0.28
#  34   -0.15   -0.24    0.02   -0.06   -0.07    0.00    0.00      -0.49   -0.22   -0.27
#  35   -0.41   -0.51    0.69   -0.03   -0.07    0.00    0.00      -0.34   -0.10   -0.28
#  36   -0.53   -0.26    0.08    0.01   -0.05    0.00    0.00      -0.75    0.07   -0.28
#  37   -0.80   -0.14    0.00    0.03   -0.04    0.00    0.00      -0.95    0.19   -0.28
#  38   -0.37   -0.98    0.83   -0.03   -0.11    0.00    0.00      -0.66   -0.08   -0.28
#  39   -0.78   -0.29    0.04    0.04   -0.07    0.00    0.00      -1.07    0.14   -0.28
#  40   -0.19   -0.75    0.49    0.00   -0.13    0.00    0.00      -0.59    0.00   -0.28
#  41    0.13   -0.93    0.83   -0.09   -0.13    0.00    0.00      -0.19   -0.19   -0.27

@<TRIPOS>MOLECULE
             1354        87
   41    45     0     0     0



@<TRIPOS>ATOM
      1 N1         18.9655    12.2224    64.9181 N.pl3      1          -0.8288
      2 C1         20.0564    12.8103    64.3079 C.ar       1           0.5186
      3 C2         20.0766    14.1898    64.0432 C.ar       1          -0.3247
      4 C3         21.2125    14.7384    63.4194 C.ar       1           0.3755
      5 N2         22.2231    13.9276    63.1053 N.ar       1          -0.5739
      6 C4         22.1599    12.6419    63.3728 C.ar       1           0.3864
      7 N3         21.1156    12.0857    63.9612 N.ar       1          -0.6044
      8 N4         20.9805    16.0741    63.2785 N.pl3      1          -0.3684
      9 N5         19.7203    16.3850    63.7998 N.2        1          -0.2291
     10 C5         19.1491    15.2989    64.2637 C.2        1           0.1768
     11 C6         17.8103    15.2119    64.8952 C.ar       1          -0.1087
     12 C7         17.6757    14.7558    66.2099 C.ar       1           0.1522
     13 N6         16.4988    14.6710    66.7881 N.ar       1          -0.4864
     14 C8         15.3819    15.0121    66.1572 C.ar       1           0.2917
     15 N7         14.0587    15.0156    66.5293 N.pl3      1          -0.5783
     16 C9         13.2817    15.4652    65.4956 C.2        1           0.0668
     17 C10        14.0537    15.7632    64.4389 C.2        1          -0.1900
     18 C11        15.4364    15.4809    64.8301 C.ar       1          -0.1505
     19 C12        16.6702    15.5890    64.1877 C.ar       1           0.0123
     20 C13        21.9072    17.0350    62.6749 C.3        1           0.1632
     21 C14        23.2759    16.3829    62.3950 C.3        1          -0.1329
     22 C15        24.2107    17.5843    62.2590 C.3        1          -0.1220
     23 C16        23.6044    18.6961    63.1061 C.3        1          -0.1211
     24 C17        22.2989    18.1370    63.6841 C.3        1          -0.1323
     25 H1         18.9668    11.2697    65.1006 H          1           0.4120
     26 H2         18.1996    12.7629    65.1678 H          1           0.4115
     27 H3         22.9975    12.0154    63.1040 H          1           0.2050
     28 H4         18.5578    14.4668    66.7619 H          1           0.1670
     29 H5         13.7243    14.7394    67.3970 H          1           0.4233
     30 H6         12.2068    15.5651    65.5260 H          1           0.1829
     31 H7         13.7191    16.1393    63.4834 H          1           0.1556
     32 H8         16.7392    15.9498    63.1721 H          1           0.1423
     33 H9         21.4838    17.4673    61.7682 H          1           0.1144
     34 H10        23.5794    15.7508    63.2294 H          1           0.0817
     35 H11        23.2475    15.8097    61.4683 H          1           0.0740
     36 H12        25.2041    17.3303    62.6289 H          1           0.0734
     37 H13        24.2699    17.8972    61.2166 H          1           0.0721
     38 H14        24.2859    18.9661    63.9130 H          1           0.0705
     39 H15        23.3963    19.5681    62.4863 H          1           0.0704
     40 H16        21.5331    18.9116    63.7244 H          1           0.0772
     41 H17        22.4675    17.7106    64.6730 H          1           0.0746
@<TRIPOS>BOND
     1    1    2 1
     2    1   25 1
     3    1   26 1
     4    2    7 ar
     5    2    3 ar
     6    3   10 1
     7    3    4 ar
     8    4    5 ar
     9    4    8 1
    10    5    6 ar
    11    6    7 ar
    12    6   27 1
    13    8    9 1
    14    8   20 1
    15    9   10 2
    16   10   11 1
    17   11   19 ar
    18   11   12 ar
    19   12   13 ar
    20   12   28 1
    21   13   14 ar
    22   14   18 ar
    23   14   15 1
    24   15   16 1
    25   15   29 1
    26   16   17 2
    27   16   30 1
    28   17   18 1
    29   17   31 1
    30   18   19 ar
    31   19   32 1
    32   20   24 1
    33   20   21 1
    34   20   33 1
    35   21   22 1
    36   21   34 1
    37   21   35 1
    38   22   23 1
    39   22   36 1
    40   22   37 1
    41   23   24 1
    42   23   38 1
    43   23   39 1
    44   24   40 1
    45   24   41 1
##########                 Name:                 1354
##########          Protonation:                   87
##########               SMILES:   c1c[nH]c2c1cc(cn2)c3c4c(ncnc4n(n3)C5CCCC5)N
##########            Long Name:   yclopentyl-3-(1H-pyrrolo[2,3-b]pyridin-5-yl)pyrazolo[3,4-d]pyrimidin-4-amine
##########          FlexRecCode: 1
##########               Number:                  214
##########   Ligand Source File: /raid1/people/rgc/Examples/tdt/part3/ligand22set/build/ligand22set-0000001.db2.g
##########           GlobalRank: 15
##########                 Rank:                    2
##########               Setnum:                   15
##########             Matchnum:                17551
##########                Cloud:                    1
##########        Electrostatic:            -8.083474
##########        Van der Waals:           -30.665619
##########  Ligand Polar Desolv:             5.472171
########## Ligand Apolar Desolv:            -3.896805
##########      Internal Energy:             0.000000
##########      Receptor Energy: 0.0
########## Receptor Desolvation:             0.000000
########## Receptor Hydrophobic:             0.000000
##########         Total Energy: -37.17
##########        Ligand Charge:             0.000000
##########            Arbitrary:    +999.9990
##########     heavy atom count:   24
##########           pose count:   10
##########        Ligand Energy:             0.000000
# num electro vdwattr vdwrepu polsolv apolsol rdesolv rhydroe totalscore fullpol fullapo
#   1    1.84   -6.88    8.93    0.30    0.52    0.00    0.00       4.70    0.47    0.81
#   2    1.28   -3.06    1.29   -1.22   -1.38    0.00    0.00      -3.09   -1.91   -2.15
#   3   -1.82   -1.75    0.26    1.13   -0.26    0.00    0.00      -2.43    1.89   -0.44
#   4    1.39   -1.70    0.54   -1.18   -1.21    0.00    0.00      -2.16   -2.13   -2.19
#   5   -0.68   -2.20    1.07    1.67    1.12    0.00    0.00       0.98    3.12    2.09
#   6    1.66   -3.84    2.06   -0.69   -1.95    0.00    0.00      -2.76   -1.12   -3.16
#   7   -2.78   -4.57    2.30    1.54    1.39    0.00    0.00      -2.11    2.30    2.08
#   8   -1.92   -1.61    0.30    0.92    0.41    0.00    0.00      -1.89    2.05    0.92
#   9   -3.41   -2.59    1.41    0.78    0.57    0.00    0.00      -3.25    1.55    1.12
#  10    1.91   -1.78    0.28   -0.52   -0.42    0.00    0.00      -0.53   -0.92   -0.75
#  11   -1.30   -2.09    0.43    0.26   -0.23    0.00    0.00      -2.94    0.41   -0.37
#  12    1.05   -2.71    0.56   -0.25   -0.46    0.00    0.00      -1.81   -0.39   -0.72
#  13   -2.22   -3.27    0.83    0.99    1.34    0.00    0.00      -2.32    1.50    2.03
#  14    2.64   -2.83    1.07   -0.32   -1.46    0.00    0.00      -0.91   -0.51   -2.31
#  15   -5.02   -2.72    0.69   -0.71    0.77    0.00    0.00      -6.99   -1.08    1.18
#  16    0.66   -2.18    0.54    0.24   -0.65    0.00    0.00      -1.39    0.37   -1.00
#  17   -2.03   -2.83    1.29   -0.18   -0.31    0.00    0.00      -4.06   -0.30   -0.51
#  18   -1.93   -2.90    1.91    0.21   -0.27    0.00    0.00      -2.98    0.35   -0.44
#  19    0.18   -2.66    0.92    0.00   -0.28    0.00    0.00      -1.85    0.00   -0.47
#  20   -0.19   -0.89    0.14   -0.19   -0.15    0.00    0.00      -1.29   -0.45   -0.36
#  21    0.52   -0.82    0.20    0.09   -0.10    0.00    0.00      -0.12    0.24   -0.27
#  22    0.89   -0.64    0.05   -0.02   -0.10    0.00    0.00       0.19   -0.06   -0.29
#  23    0.80   -1.19    0.20    0.00   -0.12    0.00    0.00      -0.30    0.01   -0.29
#  24    0.18   -1.64    0.66    0.09   -0.13    0.00    0.00      -0.83    0.20   -0.27
#  25   -5.92   -0.35    0.28    0.44    0.42    0.00    0.00      -5.14    0.62    0.59
#  26    0.55   -0.11    0.01   -0.10    0.20    0.00    0.00       0.55   -0.17    0.36
#  27    0.64   -2.14    5.51    0.24   -0.16    0.00    0.00       4.09    0.41   -0.28
#  28    0.83   -0.73    0.32   -0.16   -0.14    0.00    0.00       0.12   -0.27   -0.24
#  29    3.05   -0.07    0.00    1.10    0.34    0.00    0.00       4.43    1.91    0.59
#  30    1.58   -0.40    0.07    1.07   -0.13    0.00    0.00       2.18    2.26   -0.28
#  31    1.08   -0.92    0.67    0.32   -0.15    0.00    0.00       1.00    0.60   -0.28
#  32    1.92   -0.61    0.17   -0.18   -0.15    0.00    0.00       1.15   -0.33   -0.28
#  33   -0.57   -0.25    0.04   -0.08   -0.08    0.00    0.00      -0.95   -0.30   -0.28
#  34   -0.12   -0.25    0.03   -0.06   -0.07    0.00    0.00      -0.47   -0.22   -0.27
#  35   -0.39   -0.57    0.94   -0.03   -0.08    0.00    0.00      -0.13   -0.10   -0.28
#  36   -0.51   -0.26    0.07    0.01   -0.05    0.00    0.00      -0.73    0.07   -0.28
#  37   -0.78   -0.14    0.01    0.03   -0.04    0.00    0.00      -0.93    0.19   -0.28
#  38   -0.36   -0.96    0.80   -0.03   -0.12    0.00    0.00      -0.68   -0.08   -0.28
#  39   -0.76   -0.29    0.03    0.04   -0.08    0.00    0.00      -1.05    0.14   -0.28
#  40   -0.15   -0.78    0.59    0.00   -0.13    0.00    0.00      -0.48    0.00   -0.28
#  41    0.16   -0.99    1.04   -0.09   -0.13    0.00    0.00      -0.01   -0.19   -0.27

@<TRIPOS>MOLECULE
             1354        87
   41    45     0     0     0



@<TRIPOS>ATOM
      1 N1         18.8261    12.1954    64.9306 N.pl3      1          -0.8288
      2 C1         19.9273    12.7715    64.3275 C.ar       1           0.5186
      3 C2         19.9629    14.1502    64.0601 C.ar       1          -0.3247
      4 C3         21.1088    14.6865    63.4440 C.ar       1           0.3755
      5 N2         22.1138    13.8654    63.1393 N.ar       1          -0.5739
      6 C4         22.0362    12.5809    63.4088 C.ar       1           0.3864
      7 N3         20.9821    12.0360    63.9904 N.ar       1          -0.6044
      8 N4         20.8908    16.0241    63.2986 N.pl3      1          -0.3684
      9 N5         19.6297    16.3483    63.8097 N.2        1          -0.2291
     10 C5         19.0445    15.2687    64.2714 C.2        1           0.1768
     11 C6         17.7002    15.1959    64.8928 C.ar       1          -0.1087
     12 C7         17.5511    14.7439    66.2073 C.ar       1           0.1522
     13 N6         16.3690    14.6717    66.7767 N.ar       1          -0.4864
     14 C8         15.2603    15.0222    66.1366 C.ar       1           0.2917
     15 N7         13.9345    15.0393    66.4985 N.pl3      1          -0.5783
     16 C9         13.1698    15.4942    65.4580 C.2        1           0.0668
     17 C10        13.9526    15.7826    64.4067 C.2        1          -0.1900
     18 C11        15.3295    15.4877    64.8089 C.ar       1          -0.1505
     19 C12        16.5691    15.5825    64.1758 C.ar       1           0.0123
     20 C13        21.8313    16.9747    62.7002 C.3        1           0.1632
     21 C14        23.1958    16.3089    62.4321 C.3        1          -0.1329
     22 C15        24.1431    17.5009    62.3009 C.3        1          -0.1220
     23 C16        23.5412    18.6203    63.1410 C.3        1          -0.1211
     24 C17        22.2259    18.0750    63.7102 C.3        1          -0.1323
     25 H1         18.8168    11.2432    65.1150 H          1           0.4120
     26 H2         18.0636    12.7439    65.1733 H          1           0.4115
     27 H3         22.8696    11.9457    63.1478 H          1           0.2050
     28 H4         18.4261    14.4476    66.7666 H          1           0.1670
     29 H5         13.5908    14.7682    67.3642 H          1           0.4233
     30 H6         12.0956    15.6046    65.4800 H          1           0.1829
     31 H7         13.6290    16.1599    63.4479 H          1           0.1556
     32 H8         16.6494    15.9405    63.1600 H          1           0.1423
     33 H9         21.4190    17.4092    61.7894 H          1           0.1144
     34 H10        23.4867    15.6756    63.2701 H          1           0.0817
     35 H11        23.1688    15.7340    61.5064 H          1           0.0740
     36 H12        25.1312    17.2381    62.6788 H          1           0.0734
     37 H13        24.2133    17.8110    61.2583 H          1           0.0721
     38 H14        24.2190    18.8853    63.9525 H          1           0.0705
     39 H15        23.3463    19.4929    62.5178 H          1           0.0704
     40 H16        21.4674    18.8571    63.7431 H          1           0.0772
     41 H17        22.3829    17.6491    64.7012 H          1           0.0746
@<TRIPOS>BOND
     1    1    2 1
     2    1   25 1
     3    1   26 1
     4    2    7 ar
     5    2    3 ar
     6    3   10 1
     7    3    4 ar
     8    4    5 ar
     9    4    8 1
    10    5    6 ar
    11    6    7 ar
    12    6   27 1
    13    8    9 1
    14    8   20 1
    15    9   10 2
    16   10   11 1
    17   11   19 ar
    18   11   12 ar
    19   12   13 ar
    20   12   28 1
    21   13   14 ar
    22   14   18 ar
    23   14   15 1
    24   15   16 1
    25   15   29 1
    26   16   17 2
    27   16   30 1
    28   17   18 1
    29   17   31 1
    30   18   19 ar
    31   19   32 1
    32   20   24 1
    33   20   21 1
    34   20   33 1
    35   21   22 1
    36   21   34 1
    37   21   35 1
    38   22   23 1
    39   22   36 1
    40   22   37 1
    41   23   24 1
    42   23   38 1
    43   23   39 1
    44   24   40 1
    45   24   41 1
##########                 Name:                 1354
##########          Protonation:                   87
##########               SMILES:   c1c[nH]c2c1cc(cn2)c3c4c(ncnc4n(n3)C5CCCC5)N
##########            Long Name:   yclopentyl-3-(1H-pyrrolo[2,3-b]pyridin-5-yl)pyrazolo[3,4-d]pyrimidin-4-amine
##########          FlexRecCode: 1
##########               Number:                  214
##########   Ligand Source File: /raid1/people/rgc/Examples/tdt/part3/ligand22set/build/ligand22set-0000001.db2.g
##########           GlobalRank: 15
##########                 Rank:                    3
##########               Setnum:                   15
##########             Matchnum:                40335
##########                Cloud:                    1
##########        Electrostatic:            -8.107413
##########        Van der Waals:           -30.650806
##########  Ligand Polar Desolv:             5.476626
########## Ligand Apolar Desolv:            -3.889261
##########      Internal Energy:             0.000000
##########      Receptor Energy: 0.0
########## Receptor Desolvation:             0.000000
########## Receptor Hydrophobic:             0.000000
##########         Total Energy: -37.17
##########        Ligand Charge:             0.000000
##########            Arbitrary:    +999.9990
##########     heavy atom count:   24
##########           pose count:   10
##########        Ligand Energy:             0.000000
# num electro vdwattr vdwrepu polsolv apolsol rdesolv rhydroe totalscore fullpol fullapo
#   1    1.97   -6.87    8.86    0.30    0.52    0.00    0.00       4.78    0.47    0.81
#   2    1.28   -3.09    1.35   -1.22   -1.38    0.00    0.00      -3.05   -1.91   -2.15
#   3   -1.81   -1.75    0.27    1.13   -0.26    0.00    0.00      -2.43    1.89   -0.44
#   4    1.38   -1.70    0.54   -1.18   -1.21    0.00    0.00      -2.16   -2.13   -2.19
#   5   -0.66   -2.21    1.08    1.67    1.12    0.00    0.00       1.00    3.12    2.09
#   6    1.66   -3.86    2.10   -0.69   -1.94    0.00    0.00      -2.74   -1.12   -3.16
#   7   -2.84   -4.61    2.38    1.54    1.39    0.00    0.00      -2.14    2.30    2.08
#   8   -1.91   -1.61    0.30    0.92    0.41    0.00    0.00      -1.89    2.05    0.92
#   9   -3.40   -2.58    1.38    0.78    0.57    0.00    0.00      -3.25    1.55    1.12
#  10    1.90   -1.78    0.29   -0.52   -0.42    0.00    0.00      -0.53   -0.92   -0.75
#  11   -1.29   -2.09    0.42    0.26   -0.23    0.00    0.00      -2.93    0.41   -0.37
#  12    1.03   -2.74    0.57   -0.25   -0.46    0.00    0.00      -1.85   -0.39   -0.72
#  13   -2.10   -3.32    0.85    1.00    1.35    0.00    0.00      -2.23    1.50    2.03
#  14    2.58   -2.85    1.05   -0.32   -1.47    0.00    0.00      -1.02   -0.51   -2.31
#  15   -4.94   -2.79    0.73   -0.71    0.77    0.00    0.00      -6.93   -1.08    1.18
#  16    0.66   -2.18    0.53    0.24   -0.65    0.00    0.00      -1.40    0.37   -1.00
#  17   -2.05   -2.78    1.29   -0.18   -0.31    0.00    0.00      -4.03   -0.30   -0.51
#  18   -1.92   -2.88    1.87    0.21   -0.27    0.00    0.00      -2.99    0.35   -0.44
#  19    0.18   -2.65    0.92    0.00   -0.28    0.00    0.00      -1.83    0.00   -0.47
#  20   -0.19   -0.89    0.14   -0.19   -0.15    0.00    0.00      -1.29   -0.45   -0.36
#  21    0.53   -0.83    0.21    0.09   -0.10    0.00    0.00      -0.11    0.24   -0.27
#  22    0.90   -0.64    0.05   -0.02   -0.10    0.00    0.00       0.20   -0.06   -0.29
#  23    0.81   -1.17    0.19    0.00   -0.12    0.00    0.00      -0.28    0.01   -0.29
#  24    0.19   -1.63    0.65    0.09   -0.13    0.00    0.00      -0.82    0.20   -0.27
#  25   -6.04   -0.36    0.29    0.44    0.42    0.00    0.00      -5.26    0.62    0.59
#  26    0.47   -0.11    0.01   -0.10    0.20    0.00    0.00       0.47   -0.17    0.36
#  27    0.59   -2.16    5.67    0.24   -0.16    0.00    0.00       4.18    0.41   -0.28
#  28    0.83   -0.76    0.36   -0.16   -0.14    0.00    0.00       0.13   -0.27   -0.24
#  29    2.97   -0.07    0.00    1.11    0.34    0.00    0.00       4.36    1.91    0.59
#  30    1.58   -0.40    0.07    1.06   -0.13    0.00    0.00       2.18    2.26   -0.28
#  31    1.13   -0.85    0.53    0.32   -0.15    0.00    0.00       0.99    0.60   -0.28
#  32    1.94   -0.60    0.16   -0.18   -0.15    0.00    0.00       1.17   -0.33   -0.28
#  33   -0.57   -0.25    0.04   -0.08   -0.08    0.00    0.00      -0.95   -0.30   -0.28
#  34   -0.13   -0.24    0.02   -0.06   -0.07    0.00    0.00      -0.47   -0.22   -0.27
#  35   -0.40   -0.59    1.01   -0.03   -0.08    0.00    0.00      -0.08   -0.10   -0.28
#  36   -0.51   -0.25    0.07    0.01   -0.05    0.00    0.00      -0.73    0.07   -0.28
#  37   -0.79   -0.14    0.01    0.03   -0.04    0.00    0.00      -0.94    0.19   -0.28
#  38   -0.37   -0.93    0.73   -0.03   -0.11    0.00    0.00      -0.71   -0.08   -0.28
#  39   -0.77   -0.28    0.03    0.04   -0.08    0.00    0.00      -1.06    0.14   -0.28
#  40   -0.15   -0.78    0.58    0.00   -0.13    0.00    0.00      -0.48    0.00   -0.28
#  41    0.16   -0.97    0.99   -0.09   -0.13    0.00    0.00      -0.05   -0.19   -0.27

@<TRIPOS>MOLECULE
             1354        87
   41    45     0     0     0



@<TRIPOS>ATOM
      1 N1         18.8543    12.1868    64.9539 N.pl3      1          -0.8288
      2 C1         19.9487    12.7653    64.3409 C.ar       1           0.5186
      3 C2         19.9783    14.1438    64.0720 C.ar       1          -0.3247
      4 C3         21.1174    14.6827    63.4457 C.ar       1           0.3755
      5 N2         22.1221    13.8641    63.1332 N.ar       1          -0.5739
      6 C4         22.0503    12.5796    63.4046 C.ar       1           0.3864
      7 N3         21.0026    12.0324    63.9956 N.ar       1          -0.6044
      8 N4         20.8946    16.0196    63.3009 N.pl3      1          -0.3684
      9 N5         19.6369    16.3408    63.8224 N.2        1          -0.2291
     10 C5         19.0586    15.2600    64.2901 C.2        1           0.1768
     11 C6         17.7198    15.1842    64.9229 C.ar       1          -0.1087
     12 C7         17.5832    14.7330    66.2390 C.ar       1           0.1522
     13 N6         16.4062    14.6581    66.8185 N.ar       1          -0.4864
     14 C8         15.2911    15.0050    66.1875 C.ar       1           0.2917
     15 N7         13.9683    15.0187    66.5607 N.pl3      1          -0.5783
     16 C9         13.1936    15.4706    65.5262 C.2        1           0.0668
     17 C10        13.9667    15.7601    64.4680 C.2        1          -0.1900
     18 C11        15.3477    15.4694    64.8589 C.ar       1          -0.1505
     19 C12        16.5817    15.5670    64.2152 C.ar       1           0.0123
     20 C13        21.8273    16.9722    62.6936 C.3        1           0.1632
     21 C14        23.1913    16.3098    62.4146 C.3        1          -0.1329
     22 C15        24.1342    17.5043    62.2743 C.3        1          -0.1220
     23 C16        23.5364    18.6228    63.1185 C.3        1          -0.1211
     24 C17        22.2275    18.0745    63.6992 C.3        1          -0.1323
     25 H1         18.8492    11.2347    65.1392 H          1           0.4120
     26 H2         18.0924    12.7334    65.2025 H          1           0.4115
     27 H3         22.8832    11.9465    63.1371 H          1           0.2050
     28 H4         18.4637    14.4396    66.7912 H          1           0.1670
     29 H5         13.6328    14.7475    67.4294 H          1           0.4233
     30 H6         12.1194    15.5781    65.5572 H          1           0.1829
     31 H7         13.6340    16.1356    63.5117 H          1           0.1556
     32 H8         16.6524    15.9243    63.1984 H          1           0.1423
     33 H9         21.4062    17.4046    61.7860 H          1           0.1144
     34 H10        23.4911    15.6781    63.2507 H          1           0.0817
     35 H11        23.1581    15.7340    61.4897 H          1           0.0740
     36 H12        25.1262    17.2445    62.6441 H          1           0.0734
     37 H13        24.1947    17.8136    61.2308 H          1           0.0721
     38 H14        24.2203    18.8905    63.9240 H          1           0.0705
     39 H15        23.3338    19.4944    62.4962 H          1           0.0704
     40 H16        21.4672    18.8545    63.7379 H          1           0.0772
     41 H17        22.3940    17.6500    64.6893 H          1           0.0746
@<TRIPOS>BOND
     1    1    2 1
     2    1   25 1
     3    1   26 1
     4    2    7 ar
     5    2    3 ar
     6    3   10 1
     7    3    4 ar
     8    4    5 ar
     9    4    8 1
    10    5    6 ar
    11    6    7 ar
    12    6   27 1
    13    8    9 1
    14    8   20 1
    15    9   10 2
    16   10   11 1
    17   11   19 ar
    18   11   12 ar
    19   12   13 ar
    20   12   28 1
    21   13   14 ar
    22   14   18 ar
    23   14   15 1
    24   15   16 1
    25   15   29 1
    26   16   17 2
    27   16   30 1
    28   17   18 1
    29   17   31 1
    30   18   19 ar
    31   19   32 1
    32   20   24 1
    33   20   21 1
    34   20   33 1
    35   21   22 1
    36   21   34 1
    37   21   35 1
    38   22   23 1
    39   22   36 1
    40   22   37 1
    41   23   24 1
    42   23   38 1
    43   23   39 1
    44   24   40 1
    45   24   41 1
##########                 Name:                 1354
##########          Protonation:                   87
##########               SMILES:   c1c[nH]c2c1cc(cn2)c3c4c(ncnc4n(n3)C5CCCC5)N
##########            Long Name:   yclopentyl-3-(1H-pyrrolo[2,3-b]pyridin-5-yl)pyrazolo[3,4-d]pyrimidin-4-amine
##########          FlexRecCode: 1
##########               Number:                  214
##########   Ligand Source File: /raid1/people/rgc/Examples/tdt/part3/ligand22set/build/ligand22set-0000001.db2.g
##########           GlobalRank: 15
##########                 Rank:                    4
##########               Setnum:                   15
##########             Matchnum:                40337
##########                Cloud:                    1
##########        Electrostatic:            -7.862567
##########        Van der Waals:           -30.876938
##########  Ligand Polar Desolv:             5.536781
########## Ligand Apolar Desolv:            -3.936633
##########      Internal Energy:             0.000000
##########      Receptor Energy: 0.0
########## Receptor Desolvation:             0.000000
########## Receptor Hydrophobic:             0.000000
##########         Total Energy: -37.14
##########        Ligand Charge:             0.000000
##########            Arbitrary:    +999.9990
##########     heavy atom count:   24
##########           pose count:   10
##########        Ligand Energy:             0.000000
# num electro vdwattr vdwrepu polsolv apolsol rdesolv rhydroe totalscore fullpol fullapo
#   1    1.37   -6.77    8.54    0.30    0.52    0.00    0.00       3.95    0.47    0.81
#   2    1.36   -2.99    1.29   -1.21   -1.36    0.00    0.00      -2.91   -1.91   -2.15
#   3   -1.94   -1.76    0.29    1.12   -0.26    0.00    0.00      -2.56    1.89   -0.44
#   4    1.57   -1.64    0.38   -1.15   -1.18    0.00    0.00      -2.01   -2.13   -2.19
#   5   -0.82   -2.06    0.91    1.66    1.11    0.00    0.00       0.80    3.12    2.09
#   6    1.44   -3.36    1.38   -0.69   -1.93    0.00    0.00      -3.16   -1.12   -3.16
#   7   -2.52   -4.09    1.69    1.53    1.39    0.00    0.00      -2.00    2.30    2.08
#   8   -2.30   -1.77    0.40    0.94    0.42    0.00    0.00      -2.32    2.05    0.92
#   9   -3.66   -3.12    2.31    0.79    0.57    0.00    0.00      -3.11    1.55    1.12
#  10    2.01   -1.90    0.37   -0.52   -0.43    0.00    0.00      -0.46   -0.92   -0.75
#  11   -1.32   -2.09    0.36    0.26   -0.23    0.00    0.00      -3.02    0.41   -0.37
#  12    0.97   -2.86    0.61   -0.25   -0.46    0.00    0.00      -2.00   -0.39   -0.72
#  13   -1.82   -3.48    0.91    1.00    1.36    0.00    0.00      -2.02    1.50    2.03
#  14    2.51   -2.83    0.87   -0.32   -1.47    0.00    0.00      -1.25   -0.51   -2.31
#  15   -4.86   -2.94    0.83   -0.71    0.78    0.00    0.00      -6.90   -1.08    1.18
#  16    0.66   -2.17    0.44    0.24   -0.65    0.00    0.00      -1.48    0.37   -1.00
#  17   -2.11   -2.57    0.85   -0.19   -0.32    0.00    0.00      -4.34   -0.30   -0.51
#  18   -1.98   -2.65    1.22    0.21   -0.27    0.00    0.00      -3.47    0.35   -0.44
#  19    0.19   -2.52    0.72    0.00   -0.28    0.00    0.00      -1.90    0.00   -0.47
#  20   -0.03   -0.97    0.15   -0.20   -0.16    0.00    0.00      -1.20   -0.45   -0.36
#  21    0.46   -0.78    0.11    0.09   -0.10    0.00    0.00      -0.22    0.24   -0.27
#  22    0.85   -0.76    0.10   -0.02   -0.10    0.00    0.00       0.06   -0.06   -0.29
#  23    0.68   -1.65    0.45    0.00   -0.13    0.00    0.00      -0.65    0.01   -0.29
#  24    0.07   -2.34    1.98    0.10   -0.13    0.00    0.00      -0.32    0.20   -0.27
#  25   -5.31   -0.32    0.23    0.43    0.41    0.00    0.00      -4.55    0.62    0.59
#  26    0.59   -0.12    0.01   -0.09    0.20    0.00    0.00       0.59   -0.17    0.36
#  27    0.54   -1.67    3.10    0.24   -0.16    0.00    0.00       2.05    0.41   -0.28
#  28    0.75   -0.80    0.39   -0.16   -0.15    0.00    0.00       0.03   -0.27   -0.24
#  29    2.92   -0.08    0.01    1.14    0.35    0.00    0.00       4.34    1.91    0.59
#  30    1.59   -0.43    0.09    1.07   -0.13    0.00    0.00       2.20    2.26   -0.28
#  31    1.11   -0.81    0.52    0.32   -0.15    0.00    0.00       0.99    0.60   -0.28
#  32    2.17   -0.56    0.12   -0.18   -0.15    0.00    0.00       1.41   -0.33   -0.28
#  33   -0.45   -0.25    0.03   -0.08   -0.08    0.00    0.00      -0.83   -0.30   -0.28
#  34   -0.08   -0.27    0.03   -0.06   -0.07    0.00    0.00      -0.45   -0.22   -0.27
#  35   -0.38   -0.40    0.37   -0.02   -0.07    0.00    0.00      -0.51   -0.10   -0.28
#  36   -0.53   -0.37    0.19    0.01   -0.06    0.00    0.00      -0.75    0.07   -0.28
#  37   -0.75   -0.14    0.00    0.02   -0.03    0.00    0.00      -0.89    0.19   -0.28
#  38   -0.27   -1.53    2.19   -0.04   -0.13    0.00    0.00       0.22   -0.08   -0.28
#  39   -0.67   -0.43    0.09    0.05   -0.10    0.00    0.00      -1.06    0.14   -0.28
#  40   -0.07   -1.21    2.33    0.00   -0.15    0.00    0.00       0.90    0.00   -0.28
#  41    0.22   -1.54    3.22   -0.10   -0.14    0.00    0.00       1.66   -0.19   -0.27

@<TRIPOS>MOLECULE
             1354        87
   41    45     0     0     0



@<TRIPOS>ATOM
      1 N1         18.7593    12.2600    64.9350 N.pl3      1          -0.8288
      2 C1         19.8595    12.8652    64.3593 C.ar       1           0.5186
      3 C2         19.9032    14.2577    64.1788 C.ar       1          -0.3247
      4 C3         21.0477    14.8237    63.5872 C.ar       1           0.3755
      5 N2         22.0439    14.0163    63.2224 N.ar       1          -0.5739
      6 C4         21.9589    12.7180    63.4114 C.ar       1           0.3864
      7 N3         20.9058    12.1450    63.9671 N.ar       1          -0.6044
      8 N4         20.8386    16.1692    63.5281 N.pl3      1          -0.3684
      9 N5         19.5844    16.4694    64.0700 N.2        1          -0.2291
     10 C5         18.9951    15.3670    64.4683 C.2        1           0.1768
     11 C6         17.6557    15.2647    65.0960 C.ar       1          -0.1087
     12 C7         17.5146    14.7320    66.3809 C.ar       1           0.1522
     13 N6         16.3369    14.6323    66.9553 N.ar       1          -0.4864
     14 C8         15.2254    15.0301    66.3485 C.ar       1           0.2917
     15 N7         13.9029    15.0337    66.7229 N.pl3      1          -0.5783
     16 C9         13.1327    15.5585    65.7200 C.2        1           0.0668
     17 C10        13.9086    15.9069    64.6818 C.2        1          -0.1900
     18 C11        15.2866    15.5778    65.0522 C.ar       1          -0.1505
     19 C12        16.5214    15.7035    64.4151 C.ar       1           0.0123
     20 C13        21.7810    17.1490    62.9821 C.3        1           0.1632
     21 C14        23.1381    16.4919    62.6603 C.3        1          -0.1329
     22 C15        24.0932    17.6831    62.5956 C.3        1          -0.1220
     23 C16        23.5070    18.7516    63.5099 C.3        1          -0.1211
     24 C17        22.1926    18.1808    64.0556 C.3        1          -0.1323
     25 H1         18.7443    11.2981    65.0593 H          1           0.4120
     26 H2         18.0031    12.7974    65.2186 H          1           0.4115
     27 H3         22.7853    12.0947    63.1034 H          1           0.2050
     28 H4         18.3921    14.3949    66.9125 H          1           0.1670
     29 H5         13.5647    14.7111    67.5729 H          1           0.4233
     30 H6         12.0596    15.6748    65.7587 H          1           0.1829
     31 H7         13.5796    16.3460    63.7516 H          1           0.1556
     32 H8         16.5956    16.1241    63.4231 H          1           0.1423
     33 H9         21.3642    17.6428    62.1042 H          1           0.1144
     34 H10        23.4315    15.8051    63.4542 H          1           0.0817
     35 H11        23.0988    15.9765    61.7006 H          1           0.0740
     36 H12        25.0825    17.3901    62.9474 H          1           0.0734
     37 H13        24.1567    18.0577    61.5740 H          1           0.0721
     38 H14        24.1938    18.9603    64.3303 H          1           0.0705
     39 H15        23.3133    19.6631    62.9446 H          1           0.0704
     40 H16        21.4403    18.9645    64.1445 H          1           0.0772
     41 H17        22.3549    17.6923    65.0164 H          1           0.0746
@<TRIPOS>BOND
     1    1    2 1
     2    1   25 1
     3    1   26 1
     4    2    7 ar
     5    2    3 ar
     6    3   10 1
     7    3    4 ar
     8    4    5 ar
     9    4    8 1
    10    5    6 ar
    11    6    7 ar
    12    6   27 1
    13    8    9 1
    14    8   20 1
    15    9   10 2
    16   10   11 1
    17   11   19 ar
    18   11   12 ar
    19   12   13 ar
    20   12   28 1
    21   13   14 ar
    22   14   18 ar
    23   14   15 1
    24   15   16 1
    25   15   29 1
    26   16   17 2
    27   16   30 1
    28   17   18 1
    29   17   31 1
    30   18   19 ar
    31   19   32 1
    32   20   24 1
    33   20   21 1
    34   20   33 1
    35   21   22 1
    36   21   34 1
    37   21   35 1
    38   22   23 1
    39   22   36 1
    40   22   37 1
    41   23   24 1
    42   23   38 1
    43   23   39 1
    44   24   40 1
    45   24   41 1
##########                 Name:                 1354
##########          Protonation:                   87
##########               SMILES:   c1c[nH]c2c1cc(cn2)c3c4c(ncnc4n(n3)C5CCCC5)N
##########            Long Name:   yclopentyl-3-(1H-pyrrolo[2,3-b]pyridin-5-yl)pyrazolo[3,4-d]pyrimidin-4-amine
##########          FlexRecCode: 1
##########               Number:                  214
##########   Ligand Source File: /raid1/people/rgc/Examples/tdt/part3/ligand22set/build/ligand22set-0000001.db2.g
##########           GlobalRank: 15
##########                 Rank:                    5
##########               Setnum:                   15
##########             Matchnum:                27268
##########                Cloud:                    1
##########        Electrostatic:            -7.220477
##########        Van der Waals:           -31.207632
##########  Ligand Polar Desolv:             5.429100
########## Ligand Apolar Desolv:            -3.838957
##########      Internal Energy:             0.000000
##########      Receptor Energy: 0.0
########## Receptor Desolvation:             0.000000
########## Receptor Hydrophobic:             0.000000
##########         Total Energy: -36.84
##########        Ligand Charge:             0.000000
##########            Arbitrary:    +999.9990
##########     heavy atom count:   24
##########           pose count:   10
##########        Ligand Energy:             0.000000
# num electro vdwattr vdwrepu polsolv apolsol rdesolv rhydroe totalscore fullpol fullapo
#   1    1.02   -6.31    7.52    0.29    0.51    0.00    0.00       3.03    0.47    0.81
#   2    1.49   -3.11    1.79   -1.21   -1.36    0.00    0.00      -2.40   -1.91   -2.15
#   3   -1.90   -1.72    0.25    1.13   -0.26    0.00    0.00      -2.50    1.89   -0.44
#   4    1.37   -1.73    0.63   -1.17   -1.20    0.00    0.00      -2.09   -2.13   -2.19
#   5   -0.75   -2.16    0.99    1.68    1.12    0.00    0.00       0.88    3.12    2.09
#   6    1.65   -3.56    1.58   -0.69   -1.94    0.00    0.00      -2.97   -1.12   -3.16
#   7   -2.65   -4.39    2.20    1.53    1.38    0.00    0.00      -1.92    2.30    2.08
#   8   -1.70   -1.63    0.38    0.92    0.41    0.00    0.00      -1.61    2.05    0.92
#   9   -3.47   -2.56    1.59    0.78    0.56    0.00    0.00      -3.09    1.55    1.12
#  10    2.00   -1.77    0.27   -0.52   -0.42    0.00    0.00      -0.43   -0.92   -0.75
#  11   -1.42   -2.06    0.39    0.25   -0.23    0.00    0.00      -3.07    0.41   -0.37
#  12    1.40   -2.51    0.42   -0.25   -0.46    0.00    0.00      -1.40   -0.39   -0.72
#  13   -3.77   -3.06    0.83    0.99    1.34    0.00    0.00      -3.67    1.50    2.03
#  14    3.17   -2.61    0.80   -0.33   -1.47    0.00    0.00      -0.44   -0.51   -2.31
#  15   -5.72   -2.45    0.48   -0.71    0.78    0.00    0.00      -7.62   -1.08    1.18
#  16    0.67   -2.18    0.51    0.24   -0.65    0.00    0.00      -1.41    0.37   -1.00
#  17   -1.94   -3.04    1.41   -0.18   -0.31    0.00    0.00      -4.06   -0.30   -0.51
#  18   -1.97   -2.88    1.65    0.21   -0.26    0.00    0.00      -3.26    0.35   -0.44
#  19    0.18   -2.77    0.94    0.00   -0.28    0.00    0.00      -1.93    0.00   -0.47
#  20   -0.38   -0.95    0.27   -0.19   -0.15    0.00    0.00      -1.40   -0.45   -0.36
#  21    0.60   -0.97    0.47    0.09   -0.10    0.00    0.00       0.09    0.24   -0.27
#  22    1.01   -0.57    0.04   -0.02   -0.09    0.00    0.00       0.36   -0.06   -0.29
#  23    1.05   -0.79    0.06    0.00   -0.11    0.00    0.00       0.22    0.01   -0.29
#  24    0.43   -1.16    0.22    0.09   -0.12    0.00    0.00      -0.54    0.20   -0.27
#  25   -3.84   -0.19    0.04    0.42    0.40    0.00    0.00      -3.17    0.62    0.59
#  26    0.50   -0.09    0.01   -0.09    0.19    0.00    0.00       0.52   -0.17    0.36
#  27    0.86   -1.71    2.94    0.23   -0.16    0.00    0.00       2.16    0.41   -0.28
#  28    1.18   -0.64    0.18   -0.16   -0.14    0.00    0.00       0.42   -0.27   -0.24
#  29    3.64   -0.06    0.00    1.08    0.33    0.00    0.00       4.99    1.91    0.59
#  30    1.58   -0.42    0.09    1.07   -0.13    0.00    0.00       2.19    2.26   -0.28
#  31    1.18   -1.07    0.90    0.33   -0.15    0.00    0.00       1.19    0.60   -0.28
#  32    1.76   -0.73    0.32   -0.18   -0.16    0.00    0.00       1.01   -0.33   -0.28
#  33   -0.73   -0.33    0.11   -0.09   -0.09    0.00    0.00      -1.13   -0.30   -0.28
#  34   -0.16   -0.23    0.02   -0.05   -0.07    0.00    0.00      -0.49   -0.22   -0.27
#  35   -0.40   -0.95    3.23   -0.03   -0.09    0.00    0.00       1.77   -0.10   -0.28
#  36   -0.52   -0.17    0.02    0.01   -0.04    0.00    0.00      -0.70    0.07   -0.28
#  37   -0.86   -0.18    0.02    0.04   -0.06    0.00    0.00      -1.05    0.19   -0.28
#  38   -0.48   -0.44    0.12   -0.03   -0.09    0.00    0.00      -0.92   -0.08   -0.28
#  39   -0.97   -0.19    0.01    0.03   -0.06    0.00    0.00      -1.18    0.14   -0.28
#  40   -0.37   -0.56    0.27    0.00   -0.11    0.00    0.00      -0.77    0.00   -0.28
#  41    0.04   -0.61    0.32   -0.08   -0.12    0.00    0.00      -0.45   -0.19   -0.27

@<TRIPOS>MOLECULE
             1354        87
   41    45     0     0     0



@<TRIPOS>ATOM
      1 N1         18.8379    12.4164    65.1992 N.pl3      1          -0.8288
      2 C1         19.9277    12.9211    64.5168 C.ar       1           0.5186
      3 C2         19.9389    14.2492    64.0592 C.ar       1          -0.3247
      4 C3         21.0741    14.7134    63.3692 C.ar       1           0.3755
      5 N2         22.0927    13.8749    63.1779 N.ar       1          -0.5739
      6 C4         22.0378    12.6396    63.6247 C.ar       1           0.3864
      7 N3         20.9945    12.1636    64.2812 N.ar       1          -0.6044
      8 N4         20.8326    16.0137    63.0392 N.pl3      1          -0.3684
      9 N5         19.5670    16.3848    63.5054 N.2        1          -0.2291
     10 C5         19.0016    15.3706    64.1160 C.2        1           0.1768
     11 C6         17.6599    15.3627    64.7473 C.ar       1          -0.1087
     12 C7         17.5213    15.0965    66.1127 C.ar       1           0.1522
     13 N6         16.3417    15.0845    66.6917 N.ar       1          -0.4864
     14 C8         15.2259    15.3233    66.0137 C.ar       1           0.2917
     15 N7         13.9006    15.3684    66.3755 N.pl3      1          -0.5783
     16 C9         13.1262    15.6604    65.2849 C.2        1           0.0668
     17 C10        13.9018    15.8121    64.2002 C.2        1          -0.1900
     18 C11        15.2844    15.5997    64.6337 C.ar       1          -0.1505
     19 C12        16.5210    15.6260    63.9882 C.ar       1           0.0123
     20 C13        21.7553    16.8870    62.3097 C.3        1           0.1632
     21 C14        23.1306    16.2134    62.1314 C.3        1          -0.1329
     22 C15        24.0569    17.3912    61.8307 C.3        1          -0.1220
     23 C16        23.4372    18.6068    62.5088 C.3        1          -0.1211
     24 C17        22.1327    18.1243    63.1542 C.3        1          -0.1323
     25 H1         18.8454    11.4993    65.5150 H          1           0.4120
     26 H2         18.0665    12.9804    65.3662 H          1           0.4115
     27 H3         22.8817    11.9884    63.4513 H          1           0.2050
     28 H4         18.4024    14.8961    66.7042 H          1           0.1670
     29 H5         13.5634    15.2153    67.2720 H          1           0.4233
     30 H6         12.0503    15.7546    65.2959 H          1           0.1829
     31 H7         13.5699    16.0461    63.1995 H          1           0.1556
     32 H8         16.5931    15.8398    62.9320 H          1           0.1423
     33 H9         21.3339    17.1828    61.3489 H          1           0.1144
     34 H10        23.4342    15.7085    63.0484 H          1           0.0817
     35 H11        23.1119    15.5144    61.2953 H          1           0.0740
     36 H12        25.0501    17.2006    62.2375 H          1           0.0734
     37 H13        24.1197    17.5537    60.7547 H          1           0.0721
     38 H14        24.1119    18.9941    63.2724 H          1           0.0705
     39 H15        23.2260    19.3803    61.7706 H          1           0.0704
     40 H16        21.3609    18.8903    63.0808 H          1           0.0772
     41 H17        22.2990    17.8438    64.1944 H          1           0.0746
@<TRIPOS>BOND
     1    1    2 1
     2    1   25 1
     3    1   26 1
     4    2    7 ar
     5    2    3 ar
     6    3   10 1
     7    3    4 ar
     8    4    5 ar
     9    4    8 1
    10    5    6 ar
    11    6    7 ar
    12    6   27 1
    13    8    9 1
    14    8   20 1
    15    9   10 2
    16   10   11 1
    17   11   19 ar
    18   11   12 ar
    19   12   13 ar
    20   12   28 1
    21   13   14 ar
    22   14   18 ar
    23   14   15 1
    24   15   16 1
    25   15   29 1
    26   16   17 2
    27   16   30 1
    28   17   18 1
    29   17   31 1
    30   18   19 ar
    31   19   32 1
    32   20   24 1
    33   20   21 1
    34   20   33 1
    35   21   22 1
    36   21   34 1
    37   21   35 1
    38   22   23 1
    39   22   36 1
    40   22   37 1
    41   23   24 1
    42   23   38 1
    43   23   39 1
    44   24   40 1
    45   24   41 1
##########                 Name:                 1597
##########          Protonation:                  100
##########               SMILES:   CCOc1ccc2cc(ccc2n1)c3c(c(n(n3)C(C)(C)C)N)C(=O)N
##########            Long Name:   5-amino-1-tert-butyl-3-(2-ethoxy-6-quinolyl)pyrazole-4-carboxamide
##########          FlexRecCode: 1
##########               Number:                   73
##########   Ligand Source File: /raid1/people/rgc/Examples/tdt/part3/ligand22set/build/ligand22set-0000001.db2.g
##########           GlobalRank: 10
##########                 Rank:                    1
##########               Setnum:                   56
##########             Matchnum:                   46
##########                Cloud:                    1
##########        Electrostatic:           -10.910426
##########        Van der Waals:           -35.450928
##########  Ligand Polar Desolv:             7.312963
########## Ligand Apolar Desolv:            -1.186075
##########      Internal Energy:             0.000000
##########      Receptor Energy: 0.0
########## Receptor Desolvation:             0.000000
########## Receptor Hydrophobic:             0.000000
##########         Total Energy: -40.23
##########        Ligand Charge:             0.000000
##########            Arbitrary:    +999.9990
##########     heavy atom count:   26
##########           pose count:   10
##########        Ligand Energy:             0.000000
# num electro vdwattr vdwrepu polsolv apolsol rdesolv rhydroe totalscore fullpol fullapo
#   1   -1.10   -1.30    0.24    0.01   -0.14    0.00    0.00      -2.28    0.02   -0.21
#   2    0.55   -1.67    0.60   -0.13   -0.08    0.00    0.00      -0.72   -0.19   -0.12
#   3   -2.76   -2.07    0.47    0.93    0.56    0.00    0.00      -2.87    1.42    0.86
#   4    3.51   -2.52    0.91   -1.03   -0.43    0.00    0.00       0.44   -1.57   -0.66
#   5   -1.01   -3.56    1.20    0.13   -0.30    0.00    0.00      -3.54    0.20   -0.46
#   6   -0.09   -3.38    1.03   -0.01   -0.30    0.00    0.00      -2.76   -0.01   -0.46
#   7   -1.45   -2.48    0.68    0.31   -0.26    0.00    0.00      -3.20    0.48   -0.40
#   8   -0.46   -2.11    0.37    0.04   -0.28    0.00    0.00      -2.44    0.06   -0.45
#   9   -0.37   -1.84    0.28    0.13   -0.23    0.00    0.00      -2.02    0.23   -0.40
#  10   -0.90   -3.10    1.46    0.24   -0.24    0.00    0.00      -2.55    0.41   -0.42
#  11   -1.41   -3.61    1.56    0.46   -0.28    0.00    0.00      -3.28    0.76   -0.46
#  12    2.45   -2.83    1.41   -0.53   -0.44    0.00    0.00       0.06   -0.88   -0.73
#  13   -6.44   -2.74    1.59    2.35    1.71    0.00    0.00      -3.54    3.86    2.80
#  14    1.43   -1.64    0.27   -0.39   -0.40    0.00    0.00      -0.72   -0.76   -0.77
#  15   -1.77   -1.81    0.43    0.57    0.49    0.00    0.00      -2.09    1.25    1.08
#  16   -0.26   -1.46    0.29    0.23    0.39    0.00    0.00      -0.80    0.55    0.94
#  17    0.58   -1.77    0.61   -0.29   -0.95    0.00    0.00      -1.83   -0.61   -1.98
#  18    1.30   -2.15    0.58   -0.98    0.41    0.00    0.00      -0.84   -2.00    0.83
#  19   -1.52   -1.70    0.31    0.96   -0.25    0.00    0.00      -2.20    1.64   -0.42
#  20    2.10   -2.65    0.70   -1.75   -0.34    0.00    0.00      -1.95   -2.73   -0.53
#  21   -0.68   -4.12    2.69   -0.01    1.24    0.00    0.00      -0.87   -0.01    1.96
#  22   -3.46   -4.84    3.09    3.73    0.27    0.00    0.00      -1.21    5.62    0.41
#  23   -0.69   -0.76    0.07    0.13   -0.05    0.00    0.00      -1.29    0.33   -0.12
#  24    0.96   -0.81    0.06   -0.09   -0.07    0.00    0.00       0.06   -0.22   -0.16
#  25    0.47   -2.12    1.67   -0.29   -0.07    0.00    0.00      -0.33   -0.73   -0.17
#  26    1.15   -0.96    0.41   -0.18   -0.06    0.00    0.00       0.36   -0.52   -0.17
#  27    0.33   -0.46    0.08    0.00   -0.13    0.00    0.00      -0.18    0.01   -0.28
#  28    0.60   -0.73    1.37    0.00   -0.12    0.00    0.00       1.12    0.00   -0.28
#  29    0.49   -0.36    0.05    0.09   -0.14    0.00    0.00       0.13    0.18   -0.28
#  30    0.60   -0.71    0.63   -0.11   -0.14    0.00    0.00       0.27   -0.22   -0.28
#  31    0.52   -0.91    1.24   -0.11   -0.14    0.00    0.00       0.59   -0.22   -0.28
#  32    0.28   -1.31    1.35    0.23   -0.18    0.00    0.00       0.37    0.36   -0.28
#  33   -0.04   -0.87    0.24    0.65   -0.18    0.00    0.00      -0.20    1.02   -0.28
#  34    1.02   -0.56    0.22    0.00   -0.14    0.00    0.00       0.54    0.00   -0.28
#  35    1.35   -1.02    1.58   -0.49   -0.11    0.00    0.00       1.32   -0.94   -0.21
#  36    0.84   -1.39    1.65   -0.51   -0.17    0.00    0.00       0.42   -0.83   -0.28
#  37   -1.37   -0.02    0.00    0.68    0.10    0.00    0.00      -0.62    2.14    0.32
#  38   -0.60   -0.05    0.00    0.57    0.27    0.00    0.00       0.18    1.23    0.58
#  39    1.69   -0.06    0.00    0.49    0.28    0.00    0.00       2.42    1.04    0.59
#  40   -3.02   -0.15    0.03    0.31    0.38    0.00    0.00      -2.45    0.49    0.60
#  41   -0.70   -0.20    0.01    0.01   -0.06    0.00    0.00      -0.94    0.03   -0.28
#  42   -0.68   -0.20    0.01    0.11   -0.06    0.00    0.00      -0.82    0.50   -0.28
#  43   -0.26   -0.43    0.08   -0.02   -0.12    0.00    0.00      -0.75   -0.05   -0.28
#  44   -0.48   -0.94    2.03    0.12   -0.06    0.00    0.00       0.67    0.42   -0.20
#  45    0.07   -1.40    2.95    0.40   -0.13    0.00    0.00       1.89    0.85   -0.28
#  46   -0.09   -0.54    0.33    0.05   -0.09    0.00    0.00      -0.33    0.17   -0.28
#  47   -0.60   -0.15    0.01    0.00   -0.05    0.00    0.00      -0.79    0.00   -0.28
#  48   -0.44   -0.30    0.12    0.20   -0.07    0.00    0.00      -0.51    0.74   -0.28
#  49   -0.55   -0.71    1.07    0.09   -0.06    0.00    0.00      -0.16    0.29   -0.20

@<TRIPOS>MOLECULE
             1597       100
   49    51     0     0     0



@<TRIPOS>ATOM
      1 C1         11.5022    14.5348    64.2947 C.3        1          -0.1546
      2 C2         11.9361    15.7243    65.1539 C.3        1           0.0653
      3 O1         12.7559    15.2615    66.2289 O.3        1          -0.3060
      4 C3         14.0912    15.2016    66.0028 C.ar       1           0.3570
      5 C4         14.9371    14.7492    67.0231 C.ar       1          -0.1803
      6 C5         16.2817    14.6830    66.8105 C.ar       1          -0.0200
      7 C6         16.7791    15.0787    65.5514 C.ar       1          -0.1372
      8 C7         18.1512    15.0345    65.2675 C.ar       1          -0.0449
      9 C8         18.6005    15.4307    64.0204 C.ar       1          -0.0300
     10 C9         17.6927    15.8738    63.0451 C.ar       1          -0.0653
     11 C10        16.3602    15.9234    63.3036 C.ar       1          -0.1055
     12 C11        15.8706    15.5271    64.5612 C.ar       1           0.1796
     13 N1         14.5602    15.5647    64.8287 N.ar       1          -0.5415
     14 C12        20.0499    15.3875    63.7119 C.2        1           0.1783
     15 N2         20.8055    16.4060    63.3747 N.2        1          -0.2778
     16 N3         22.1141    15.9637    63.1644 N.pl3      1          -0.3798
     17 C13        22.1834    14.6345    63.3744 C.2        1           0.4163
     18 N4         23.3123    13.8490    63.2619 N.pl3      1          -0.8446
     19 C14        20.9104    14.1987    63.7323 C.2        1          -0.3651
     20 C15        20.5094    12.8271    64.0601 C.2        1           0.6122
     21 N5         19.2295    12.5589    64.3863 N.am       1          -0.8478
     22 O2         21.3322    11.9307    64.0373 O.2        1          -0.5413
     23 C16        23.2403    16.8160    62.7746 C.3        1           0.1781
     24 C17        22.7608    18.2621    62.6343 C.3        1          -0.1405
     25 C18        24.3305    16.7418    63.8456 C.3        1          -0.1652
     26 C19        23.8056    16.3339    61.4371 C.3        1          -0.1670
     27 H1         10.8769    14.8879    63.4747 H          1           0.0653
     28 H2         12.3840    14.0374    63.8912 H          1           0.0653
     29 H3         10.9366    13.8320    64.9063 H          1           0.0803
     30 H4         12.5017    16.4272    64.5421 H          1           0.0680
     31 H5         11.0542    16.2218    65.5576 H          1           0.0682
     32 H6         14.5249    14.4536    67.9765 H          1           0.1466
     33 H7         16.9490    14.3370    67.5860 H          1           0.1494
     34 H8         18.8515    14.6945    66.0160 H          1           0.1369
     35 H9         18.0590    16.1798    62.0763 H          1           0.1398
     36 H10        15.6757    16.2675    62.5423 H          1           0.1386
     37 H11        24.1589    14.2499    63.0098 H          1           0.4038
     38 H12        23.2594    12.8960    63.4348 H          1           0.4169
     39 H13        18.5737    13.2733    64.4043 H          1           0.4017
     40 H14        18.9643    11.6514    64.6031 H          1           0.4008
     41 H15        23.5985    18.8961    62.3444 H          1           0.0705
     42 H16        21.9841    18.3148    61.8713 H          1           0.0734
     43 H17        22.3578    18.6053    63.5871 H          1           0.0710
     44 H18        25.1683    17.3759    63.5555 H          1           0.0605
     45 H19        23.9277    17.0853    64.7984 H          1           0.0845
     46 H20        24.6720    15.7116    63.9457 H          1           0.0701
     47 H21        24.6433    16.9679    61.1471 H          1           0.0707
     48 H22        24.1473    15.3037    61.5371 H          1           0.0845
     49 H23        23.0289    16.3867    60.6741 H          1           0.0608
@<TRIPOS>BOND
     1    1    2 1
     2    1   27 1
     3    1   28 1
     4    1   29 1
     5    2    3 1
     6    2   30 1
     7    2   31 1
     8    3    4 1
     9    4   13 ar
    10    4    5 ar
    11    5    6 ar
    12    5   32 1
    13    6    7 ar
    14    6   33 1
    15    7   12 ar
    16    7    8 ar
    17    8    9 ar
    18    8   34 1
    19    9   10 ar
    20    9   14 1
    21   10   11 ar
    22   10   35 1
    23   11   12 ar
    24   11   36 1
    25   12   13 ar
    26   14   19 1
    27   14   15 2
    28   15   16 1
    29   16   17 1
    30   16   23 1
    31   17   18 1
    32   17   19 2
    33   18   37 1
    34   18   38 1
    35   19   20 1
    36   20   21 am
    37   20   22 2
    38   21   39 1
    39   21   40 1
    40   23   24 1
    41   23   25 1
    42   23   26 1
    43   24   41 1
    44   24   42 1
    45   24   43 1
    46   25   44 1
    47   25   45 1
    48   25   46 1
    49   26   47 1
    50   26   48 1
    51   26   49 1
##########                 Name:                 1597
##########          Protonation:                  100
##########               SMILES:   CCOc1ccc2cc(ccc2n1)c3c(c(n(n3)C(C)(C)C)N)C(=O)N
##########            Long Name:   5-amino-1-tert-butyl-3-(2-ethoxy-6-quinolyl)pyrazole-4-carboxamide
##########          FlexRecCode: 1
##########               Number:                   74
##########   Ligand Source File: /raid1/people/rgc/Examples/tdt/part3/ligand22set/build/ligand22set-0000001.db2.g
##########           GlobalRank: 10
##########                 Rank:                    1
##########               Setnum:                   56
##########             Matchnum:                 1746
##########                Cloud:                    1
##########        Electrostatic:           -11.046830
##########        Van der Waals:           -35.133472
##########  Ligand Polar Desolv:             7.272443
########## Ligand Apolar Desolv:            -1.264483
##########      Internal Energy:             0.000000
##########      Receptor Energy: 0.0
########## Receptor Desolvation:             0.000000
########## Receptor Hydrophobic:             0.000000
##########         Total Energy: -40.17
##########        Ligand Charge:             0.000000
##########            Arbitrary:    +999.9990
##########     heavy atom count:   26
##########           pose count:   10
##########        Ligand Energy:             0.000000
# num electro vdwattr vdwrepu polsolv apolsol rdesolv rhydroe totalscore fullpol fullapo
#   1   -0.99   -1.26    0.19    0.01   -0.14    0.00    0.00      -2.19    0.02   -0.21
#   2    0.50   -1.65    0.59   -0.13   -0.08    0.00    0.00      -0.77   -0.19   -0.12
#   3   -2.58   -2.67    1.22    0.93    0.56    0.00    0.00      -2.54    1.42    0.86
#   4    3.25   -2.61    0.84   -1.03   -0.43    0.00    0.00       0.02   -1.57   -0.66
#   5   -0.92   -3.94    1.63    0.13   -0.30    0.00    0.00      -3.40    0.20   -0.46
#   6   -0.09   -3.48    1.08   -0.01   -0.30    0.00    0.00      -2.80   -0.01   -0.46
#   7   -1.48   -2.56    0.76    0.31   -0.26    0.00    0.00      -3.23    0.48   -0.40
#   8   -0.51   -2.12    0.35    0.04   -0.28    0.00    0.00      -2.52    0.06   -0.45
#   9   -0.43   -2.01    0.36    0.13   -0.23    0.00    0.00      -2.17    0.23   -0.40
#  10   -0.94   -3.40    1.60    0.24   -0.25    0.00    0.00      -2.75    0.41   -0.42
#  11   -1.30   -3.82    1.89    0.46   -0.28    0.00    0.00      -3.05    0.76   -0.46
#  12    2.36   -2.90    1.76   -0.53   -0.44    0.00    0.00       0.25   -0.88   -0.73
#  13   -6.01   -2.60    1.48    2.43    1.77    0.00    0.00      -2.94    3.86    2.80
#  14    1.91   -1.77    0.33   -0.39   -0.40    0.00    0.00      -0.32   -0.76   -0.77
#  15   -3.09   -2.54    1.68    0.58    0.50    0.00    0.00      -2.86    1.25    1.08
#  16   -0.62   -1.48    0.28    0.23    0.40    0.00    0.00      -1.19    0.55    0.94
#  17    0.80   -1.77    0.87   -0.28   -0.92    0.00    0.00      -1.30   -0.61   -1.98
#  18    0.75   -1.90    0.72   -0.94    0.39    0.00    0.00      -0.98   -2.00    0.83
#  19   -1.83   -1.62    0.29    0.95   -0.24    0.00    0.00      -2.44    1.64   -0.42
#  20    2.22   -2.26    0.45   -1.72   -0.33    0.00    0.00      -1.64   -2.73   -0.53
#  21   -1.72   -4.11    3.69   -0.01    1.22    0.00    0.00      -0.93   -0.01    1.96
#  22   -2.53   -3.13    0.84    3.68    0.27    0.00    0.00      -0.86    5.62    0.41
#  23   -0.79   -0.75    0.06    0.13   -0.05    0.00    0.00      -1.38    0.33   -0.12
#  24    1.14   -1.05    0.16   -0.10   -0.07    0.00    0.00       0.09   -0.22   -0.16
#  25    0.56   -1.41    0.43   -0.30   -0.07    0.00    0.00      -0.79   -0.73   -0.17
#  26    1.46   -1.07    0.55   -0.18   -0.06    0.00    0.00       0.70   -0.52   -0.17
#  27    0.26   -0.40    0.07    0.00   -0.14    0.00    0.00      -0.21    0.01   -0.28
#  28    0.53   -0.56    0.60    0.00   -0.11    0.00    0.00       0.45    0.00   -0.28
#  29    0.48   -0.48    0.13    0.10   -0.15    0.00    0.00       0.08    0.18   -0.28
#  30    0.59   -0.62    0.38   -0.10   -0.13    0.00    0.00       0.11   -0.22   -0.28
#  31    0.47   -0.87    1.11   -0.12   -0.15    0.00    0.00       0.44   -0.22   -0.28
#  32    0.23   -1.76    3.02    0.23   -0.18    0.00    0.00       1.54    0.36   -0.28
#  33   -0.03   -0.89    0.26    0.65   -0.18    0.00    0.00      -0.19    1.02   -0.28
#  34    1.13   -0.48    0.11    0.00   -0.14    0.00    0.00       0.61    0.00   -0.28
#  35    1.44   -1.27    2.59   -0.53   -0.12    0.00    0.00       2.11   -0.94   -0.21
#  36    0.51   -1.64    3.50   -0.51   -0.17    0.00    0.00       1.69   -0.83   -0.28
#  37   -1.15   -0.02    0.00    0.59    0.09    0.00    0.00      -0.49    2.14    0.32
#  38   -0.34   -0.03    0.00    0.53    0.25    0.00    0.00       0.41    1.23    0.58
#  39    2.10   -0.07    0.01    0.47    0.27    0.00    0.00       2.78    1.04    0.59
#  40   -1.80   -0.12    0.01    0.30    0.37    0.00    0.00      -1.23    0.49    0.60
#  41   -0.89   -0.26    0.03    0.01   -0.07    0.00    0.00      -1.18    0.03   -0.28
#  42   -0.76   -0.30    0.07    0.15   -0.08    0.00    0.00      -0.93    0.50   -0.28
#  43   -0.33   -0.62    0.24   -0.02   -0.12    0.00    0.00      -0.85   -0.05   -0.28
#  44   -0.42   -0.47    0.25    0.12   -0.06    0.00    0.00      -0.58    0.42   -0.20
#  45   -0.02   -0.78    0.34    0.39   -0.13    0.00    0.00      -0.20    0.85   -0.28
#  46   -0.15   -0.39    0.12    0.05   -0.08    0.00    0.00      -0.45    0.17   -0.28
#  47   -0.83   -0.18    0.01    0.00   -0.05    0.00    0.00      -1.05    0.00   -0.28
#  48   -0.53   -0.43    0.36    0.19   -0.07    0.00    0.00      -0.48    0.74   -0.28
#  49   -0.68   -0.64    0.71    0.10   -0.07    0.00    0.00      -0.57    0.29   -0.20

@<TRIPOS>MOLECULE
             1597       100
   49    51     0     0     0



@<TRIPOS>ATOM
      1 C1         11.1481    14.2379    64.6363 C.3        1          -0.1546
      2 C2         11.5403    15.4496    65.4843 C.3        1           0.0653
      3 O1         12.4403    15.0383    66.5153 O.3        1          -0.3060
      4 C3         13.7642    15.0713    66.2258 C.ar       1           0.3570
      5 C4         14.6868    14.6725    67.2010 C.ar       1          -0.1803
      6 C5         16.0211    14.6997    66.9245 C.ar       1          -0.0200
      7 C6         16.4296    15.1355    65.6468 C.ar       1          -0.1372
      8 C7         17.7863    15.1869    65.2979 C.ar       1          -0.0449
      9 C8         18.1475    15.6197    64.0344 C.ar       1          -0.0300
     10 C9         17.1660    16.0048    63.1070 C.ar       1          -0.0653
     11 C10        15.8471    15.9616    63.4286 C.ar       1          -0.1055
     12 C11        15.4463    15.5258    64.7045 C.ar       1           0.1796
     13 N1         14.1507    15.4721    65.0340 N.ar       1          -0.5415
     14 C12        19.5800    15.6776    63.6573 C.2        1           0.1783
     15 N2         20.2475    16.7473    63.2936 N.2        1          -0.2778
     16 N3         21.5717    16.3970    63.0179 N.pl3      1          -0.3798
     17 C13        21.7414    15.0745    63.2129 C.2        1           0.4163
     18 N4         22.9146    14.3689    63.0403 N.pl3      1          -0.8446
     19 C14        20.5196    14.5505    63.6268 C.2        1          -0.3651
     20 C15        20.2292    13.1529    63.9612 C.2        1           0.6122
     21 N5         18.9877    12.7958    64.3453 N.am       1          -0.8478
     22 O2         21.1093    12.3151    63.8918 O.2        1          -0.5413
     23 C16        22.6171    17.3265    62.5827 C.3        1           0.1781
     24 C17        22.0339    18.7371    62.4777 C.3        1          -0.1405
     25 C18        23.7598    17.3214    63.6002 C.3        1          -0.1652
     26 C19        23.1494    16.8916    61.2158 C.3        1          -0.1670
     27 H1         10.4617    14.5517    63.8499 H          1           0.0653
     28 H2         12.0415    13.8043    64.1872 H          1           0.0653
     29 H3         10.6616    13.4946    65.2679 H          1           0.0803
     30 H4         12.0268    16.1929    64.8526 H          1           0.0680
     31 H5         10.6469    15.8833    65.9335 H          1           0.0682
     32 H6         14.3417    14.3442    68.1702 H          1           0.1466
     33 H7         16.7466    14.3961    67.6645 H          1           0.1494
     34 H8         18.5431    14.8916    66.0094 H          1           0.1369
     35 H9         17.4639    16.3404    62.1246 H          1           0.1398
     36 H10        15.1051    16.2620    62.7036 H          1           0.1386
     37 H11        23.7189    14.8281    62.7519 H          1           0.4038
     38 H12        22.9351    13.4136    63.2072 H          1           0.4169
     39 H13        18.2862    13.4636    64.4004 H          1           0.4017
     40 H14        18.7956    11.8712    64.5665 H          1           0.4008
     41 H15        22.8117    19.4287    62.1540 H          1           0.0705
     42 H16        21.2199    18.7406    61.7527 H          1           0.0734
     43 H17        21.6545    19.0468    63.4515 H          1           0.0710
     44 H18        24.5376    18.0130    63.2764 H          1           0.0605
     45 H19        23.3805    17.6314    64.5739 H          1           0.0845
     46 H20        24.1751    16.3166    63.6752 H          1           0.0701
     47 H21        23.9272    17.5831    60.8920 H          1           0.0707
     48 H22        23.5650    15.8867    61.2905 H          1           0.0845
     49 H23        22.3354    16.8952    60.4909 H          1           0.0608
@<TRIPOS>BOND
     1    1    2 1
     2    1   27 1
     3    1   28 1
     4    1   29 1
     5    2    3 1
     6    2   30 1
     7    2   31 1
     8    3    4 1
     9    4   13 ar
    10    4    5 ar
    11    5    6 ar
    12    5   32 1
    13    6    7 ar
    14    6   33 1
    15    7   12 ar
    16    7    8 ar
    17    8    9 ar
    18    8   34 1
    19    9   10 ar
    20    9   14 1
    21   10   11 ar
    22   10   35 1
    23   11   12 ar
    24   11   36 1
    25   12   13 ar
    26   14   19 1
    27   14   15 2
    28   15   16 1
    29   16   17 1
    30   16   23 1
    31   17   18 1
    32   17   19 2
    33   18   37 1
    34   18   38 1
    35   19   20 1
    36   20   21 am
    37   20   22 2
    38   21   39 1
    39   21   40 1
    40   23   24 1
    41   23   25 1
    42   23   26 1
    43   24   41 1
    44   24   42 1
    45   24   43 1
    46   25   44 1
    47   25   45 1
    48   25   46 1
    49   26   47 1
    50   26   48 1
    51   26   49 1
##########                 Name:                 1597
##########          Protonation:                  100
##########               SMILES:   CCOc1ccc2cc(ccc2n1)c3c(c(n(n3)C(C)(C)C)N)C(=O)N
##########            Long Name:   5-amino-1-tert-butyl-3-(2-ethoxy-6-quinolyl)pyrazole-4-carboxamide
##########          FlexRecCode: 1
##########               Number:                   74
##########   Ligand Source File: /raid1/people/rgc/Examples/tdt/part3/ligand22set/build/ligand22set-0000001.db2.g
##########           GlobalRank: 15
##########                 Rank:                    2
##########               Setnum:                   56
##########             Matchnum:                 8156
##########                Cloud:                    1
##########        Electrostatic:           -10.823842
##########        Van der Waals:           -31.907797
##########  Ligand Polar Desolv:             7.219299
########## Ligand Apolar Desolv:            -1.218153
##########      Internal Energy:             0.000000
##########      Receptor Energy: 0.0
########## Receptor Desolvation:             0.000000
########## Receptor Hydrophobic:             0.000000
##########         Total Energy: -36.73
##########        Ligand Charge:             0.000000
##########            Arbitrary:    +999.9990
##########     heavy atom count:   26
##########           pose count:   10
##########        Ligand Energy:             0.000000
# num electro vdwattr vdwrepu polsolv apolsol rdesolv rhydroe totalscore fullpol fullapo
#   1   -1.03   -1.26    0.20    0.01   -0.14    0.00    0.00      -2.21    0.02   -0.21
#   2    0.52   -1.62    0.53   -0.13   -0.08    0.00    0.00      -0.77   -0.19   -0.12
#   3   -2.66   -2.22    0.62    0.93    0.56    0.00    0.00      -2.76    1.42    0.86
#   4    3.41   -2.54    0.97   -1.03   -0.43    0.00    0.00       0.38   -1.57   -0.66
#   5   -1.05   -3.54    1.22    0.13   -0.30    0.00    0.00      -3.53    0.20   -0.46
#   6   -0.10   -3.27    0.98   -0.01   -0.30    0.00    0.00      -2.71   -0.01   -0.46
#   7   -1.54   -2.54    0.81    0.32   -0.26    0.00    0.00      -3.21    0.48   -0.40
#   8   -0.51   -2.06    0.35    0.04   -0.28    0.00    0.00      -2.46    0.06   -0.45
#   9   -0.41   -1.99    0.37    0.13   -0.23    0.00    0.00      -2.13    0.23   -0.40
#  10   -0.88   -3.73    2.47    0.24   -0.25    0.00    0.00      -2.15    0.41   -0.42
#  11   -1.27   -4.12    2.26    0.46   -0.28    0.00    0.00      -2.95    0.76   -0.46
#  12    2.38   -2.98    1.80   -0.52   -0.43    0.00    0.00       0.24   -0.88   -0.73
#  13   -6.16   -2.77    1.81    2.38    1.72    0.00    0.00      -3.02    3.86    2.80
#  14    1.66   -1.68    0.27   -0.39   -0.39    0.00    0.00      -0.52   -0.76   -0.77
#  15   -2.25   -2.03    0.73    0.57    0.49    0.00    0.00      -2.48    1.25    1.08
#  16   -0.19   -1.50    0.42    0.23    0.39    0.00    0.00      -0.65    0.55    0.94
#  17    0.51   -1.97    1.55   -0.29   -0.93    0.00    0.00      -1.13   -0.61   -1.98
#  18    1.37   -2.06    0.88   -0.94    0.39    0.00    0.00      -0.36   -2.00    0.83
#  19   -1.60   -1.68    0.43    0.95   -0.24    0.00    0.00      -2.16    1.64   -0.42
#  20    2.13   -2.29    0.42   -1.73   -0.34    0.00    0.00      -1.81   -2.73   -0.53
#  21   -1.59   -3.98    3.13   -0.01    1.23    0.00    0.00      -1.22   -0.01    1.96
#  22   -2.82   -3.55    1.28    3.70    0.27    0.00    0.00      -1.12    5.62    0.41
#  23   -0.89   -0.72    0.08    0.13   -0.05    0.00    0.00      -1.45    0.33   -0.12
#  24    1.23   -0.84    0.08   -0.09   -0.07    0.00    0.00       0.30   -0.22   -0.16
#  25    0.64   -1.28    0.38   -0.28   -0.07    0.00    0.00      -0.61   -0.73   -0.17
#  26    1.46   -1.27    0.87   -0.18   -0.06    0.00    0.00       0.83   -0.52   -0.17
#  27    0.27   -0.44    0.08    0.00   -0.13    0.00    0.00      -0.21    0.01   -0.28
#  28    0.56   -0.63    0.88    0.00   -0.11    0.00    0.00       0.69    0.00   -0.28
#  29    0.48   -0.41    0.07    0.09   -0.15    0.00    0.00       0.09    0.18   -0.28
#  30    0.59   -0.67    0.51   -0.11   -0.14    0.00    0.00       0.18   -0.22   -0.28
#  31    0.48   -0.84    1.01   -0.11   -0.15    0.00    0.00       0.39   -0.22   -0.28
#  32    0.32   -1.31    1.33    0.23   -0.18    0.00    0.00       0.39    0.36   -0.28
#  33    0.10   -0.79    0.19    0.64   -0.18    0.00    0.00      -0.04    1.02   -0.28
#  34    1.14   -0.47    0.11    0.00   -0.14    0.00    0.00       0.65    0.00   -0.28
#  35    1.25   -1.61    5.64   -0.53   -0.12    0.00    0.00       4.64   -0.94   -0.21
#  36    0.52   -1.75    3.14   -0.52   -0.18    0.00    0.00       1.21   -0.83   -0.28
#  37   -1.38   -0.02    0.00    0.62    0.09    0.00    0.00      -0.69    2.14    0.32
#  38   -0.73   -0.04    0.00    0.55    0.26    0.00    0.00       0.04    1.23    0.58
#  39    2.04   -0.06    0.01    0.48    0.27    0.00    0.00       2.73    1.04    0.59
#  40   -2.03   -0.12    0.01    0.31    0.38    0.00    0.00      -1.45    0.49    0.60
#  41   -0.90   -0.20    0.01    0.01   -0.06    0.00    0.00      -1.14    0.03   -0.28
#  42   -0.82   -0.24    0.02    0.13   -0.07    0.00    0.00      -0.97    0.50   -0.28
#  43   -0.38   -0.45    0.10   -0.02   -0.11    0.00    0.00      -0.86   -0.05   -0.28
#  44   -0.45   -0.42    0.23    0.10   -0.05    0.00    0.00      -0.58    0.42   -0.20
#  45   -0.08   -0.71    0.32    0.37   -0.12    0.00    0.00      -0.22    0.85   -0.28
#  46   -0.18   -0.34    0.08    0.05   -0.07    0.00    0.00      -0.46    0.17   -0.28
#  47   -0.80   -0.19    0.02    0.00   -0.06    0.00    0.00      -1.03    0.00   -0.28
#  48   -0.52   -0.47    0.44    0.21   -0.08    0.00    0.00      -0.42    0.74   -0.28
#  49   -0.68   -0.89    1.54    0.10   -0.07    0.00    0.00       0.00    0.29   -0.20

@<TRIPOS>MOLECULE
             1597       100
   49    51     0     0     0



@<TRIPOS>ATOM
      1 C1         11.2804    14.3431    64.4072 C.3        1          -0.1546
      2 C2         11.6933    15.5589    65.2394 C.3        1           0.0653
      3 O1         12.5756    15.1437    66.2840 O.3        1          -0.3060
      4 C3         13.9022    15.1425    66.0049 C.ar       1           0.3570
      5 C4         14.8078    14.7384    66.9936 C.ar       1          -0.1803
      6 C5         16.1446    14.7314    66.7277 C.ar       1          -0.0200
      7 C6         16.5728    15.1376    65.4467 C.ar       1          -0.1372
      8 C7         17.9330    15.1530    65.1082 C.ar       1          -0.0449
      9 C8         18.3137    15.5577    63.8410 C.ar       1          -0.0300
     10 C9         17.3485    15.9501    62.8998 C.ar       1          -0.0653
     11 C10        16.0265    15.9416    63.2113 C.ar       1          -0.1055
     12 C11        15.6059    15.5351    64.4905 C.ar       1           0.1796
     13 N1         14.3070    15.5156    64.8101 N.ar       1          -0.5415
     14 C12        19.7501    15.5775    63.4748 C.2        1           0.1783
     15 N2         20.4443    16.6260    63.1000 N.2        1          -0.2778
     16 N3         21.7624    16.2417    62.8405 N.pl3      1          -0.3798
     17 C13        21.9007    14.9190    63.0575 C.2        1           0.4163
     18 N4         23.0590    14.1846    62.9055 N.pl3      1          -0.8446
     19 C14        20.6642    14.4292    63.4695 C.2        1          -0.3651
     20 C15        20.3397    13.0439    63.8233 C.2        1           0.6122
     21 N5         19.0874    12.7209    64.2027 N.am       1          -0.8478
     22 O2         21.2011    12.1856    63.7741 O.2        1          -0.5413
     23 C16        22.8320    17.1405    62.3995 C.3        1           0.1781
     24 C17        22.2816    18.5621    62.2678 C.3        1          -0.1405
     25 C18        23.9662    17.1258    63.4262 C.3        1          -0.1652
     26 C19        23.3650    16.6724    61.0439 C.3        1          -0.1670
     27 H1         10.6075    14.6598    63.6105 H          1           0.0653
     28 H2         12.1673    13.8825    63.9722 H          1           0.0653
     29 H3         10.7724    13.6210    65.0463 H          1           0.0803
     30 H4         12.2013    16.2811    64.6002 H          1           0.0680
     31 H5         10.8064    16.0196    65.6745 H          1           0.0682
     32 H6         14.4479    14.4333    67.9650 H          1           0.1466
     33 H7         16.8573    14.4232    67.4782 H          1           0.1494
     34 H8         18.6773    14.8521    65.8303 H          1           0.1369
     35 H9         17.6615    16.2634    61.9148 H          1           0.1398
     36 H10        15.2971    16.2471    62.4756 H          1           0.1386
     37 H11        23.8757    14.6211    62.6166 H          1           0.4038
     38 H12        23.0566    13.2318    63.0874 H          1           0.4169
     39 H13        18.4008    13.4050    64.2417 H          1           0.4017
     40 H14        18.8728    11.8044    64.4367 H          1           0.4008
     41 H15        23.0773    19.2308    61.9397 H          1           0.0705
     42 H16        21.4736    18.5725    61.5362 H          1           0.0734
     43 H17        21.9017    18.8955    63.2335 H          1           0.0710
     44 H18        24.7620    17.7946    63.0981 H          1           0.0605
     45 H19        23.5865    17.4596    64.3919 H          1           0.0845
     46 H20        24.3582    16.1133    63.5203 H          1           0.0701
     47 H21        24.1607    17.3410    60.7158 H          1           0.0707
     48 H22        23.7571    15.6597    61.1377 H          1           0.0845
     49 H23        22.5569    16.6828    60.3125 H          1           0.0608
@<TRIPOS>BOND
     1    1    2 1
     2    1   27 1
     3    1   28 1
     4    1   29 1
     5    2    3 1
     6    2   30 1
     7    2   31 1
     8    3    4 1
     9    4   13 ar
    10    4    5 ar
    11    5    6 ar
    12    5   32 1
    13    6    7 ar
    14    6   33 1
    15    7   12 ar
    16    7    8 ar
    17    8    9 ar
    18    8   34 1
    19    9   10 ar
    20    9   14 1
    21   10   11 ar
    22   10   35 1
    23   11   12 ar
    24   11   36 1
    25   12   13 ar
    26   14   19 1
    27   14   15 2
    28   15   16 1
    29   16   17 1
    30   16   23 1
    31   17   18 1
    32   17   19 2
    33   18   37 1
    34   18   38 1
    35   19   20 1
    36   20   21 am
    37   20   22 2
    38   21   39 1
    39   21   40 1
    40   23   24 1
    41   23   25 1
    42   23   26 1
    43   24   41 1
    44   24   42 1
    45   24   43 1
    46   25   44 1
    47   25   45 1
    48   25   46 1
    49   26   47 1
    50   26   48 1
    51   26   49 1
##########                 Name:                 1597
##########          Protonation:                  100
##########               SMILES:   CCOc1ccc2cc(ccc2n1)c3c(c(n(n3)C(C)(C)C)N)C(=O)N
##########            Long Name:   5-amino-1-tert-butyl-3-(2-ethoxy-6-quinolyl)pyrazole-4-carboxamide
##########          FlexRecCode: 1
##########               Number:                   73
##########   Ligand Source File: /raid1/people/rgc/Examples/tdt/part3/ligand22set/build/ligand22set-0000001.db2.g
##########           GlobalRank: 15
##########                 Rank:                    2
##########               Setnum:                   56
##########             Matchnum:                  194
##########                Cloud:                    1
##########        Electrostatic:           -10.940907
##########        Van der Waals:           -31.182043
##########  Ligand Polar Desolv:             7.570671
########## Ligand Apolar Desolv:            -1.201483
##########      Internal Energy:             0.000000
##########      Receptor Energy: 0.0
########## Receptor Desolvation:             0.000000
########## Receptor Hydrophobic:             0.000000
##########         Total Energy: -35.75
##########        Ligand Charge:             0.000000
##########            Arbitrary:    +999.9990
##########     heavy atom count:   26
##########           pose count:   10
##########        Ligand Energy:             0.000000
# num electro vdwattr vdwrepu polsolv apolsol rdesolv rhydroe totalscore fullpol fullapo
#   1   -1.05   -1.28    0.21    0.01   -0.14    0.00    0.00      -2.24    0.02   -0.21
#   2    0.53   -1.70    0.63   -0.13   -0.08    0.00    0.00      -0.75   -0.19   -0.12
#   3   -2.64   -2.88    1.58    0.93    0.56    0.00    0.00      -2.45    1.42    0.86
#   4    3.18   -2.71    0.81   -1.03   -0.43    0.00    0.00      -0.18   -1.57   -0.66
#   5   -0.72   -4.43    2.22    0.13   -0.30    0.00    0.00      -3.10    0.20   -0.46
#   6   -0.05   -3.91    1.37   -0.01   -0.31    0.00    0.00      -2.91   -0.01   -0.46
#   7   -1.25   -2.63    0.71    0.31   -0.26    0.00    0.00      -3.12    0.48   -0.40
#   8   -0.42   -2.26    0.41    0.04   -0.28    0.00    0.00      -2.51    0.06   -0.45
#   9   -0.37   -1.87    0.29    0.14   -0.24    0.00    0.00      -2.04    0.23   -0.40
#  10   -0.94   -2.79    0.94    0.24   -0.24    0.00    0.00      -2.79    0.41   -0.42
#  11   -1.44   -3.25    1.23    0.45   -0.27    0.00    0.00      -3.28    0.76   -0.46
#  12    2.31   -2.84    1.68   -0.54   -0.45    0.00    0.00       0.16   -0.88   -0.73
#  13   -6.13   -2.59    1.42    2.44    1.77    0.00    0.00      -3.09    3.86    2.80
#  14    1.55   -1.70    0.31   -0.40   -0.41    0.00    0.00      -0.65   -0.76   -0.77
#  15   -2.25   -1.99    0.59    0.58    0.50    0.00    0.00      -2.56    1.25    1.08
#  16   -0.71   -1.52    0.28    0.24    0.40    0.00    0.00      -1.31    0.55    0.94
#  17    0.92   -1.75    0.46   -0.31   -1.00    0.00    0.00      -1.68   -0.61   -1.98
#  18    0.45   -2.19    0.57   -1.01    0.42    0.00    0.00      -1.77   -2.00    0.83
#  19   -1.69   -1.75    0.29    0.97   -0.25    0.00    0.00      -2.43    1.64   -0.42
#  20    1.86   -3.04    1.29   -1.76   -0.34    0.00    0.00      -2.00   -2.73   -0.53
#  21    0.14   -4.94    4.07   -0.01    1.25    0.00    0.00       0.51   -0.01    1.96
#  22   -3.03   -5.13    3.30    3.78    0.28    0.00    0.00      -0.81    5.62    0.41
#  23   -0.51   -0.80    0.08    0.13   -0.05    0.00    0.00      -1.15    0.33   -0.12
#  24    0.79   -0.89    0.08   -0.09   -0.07    0.00    0.00      -0.18   -0.22   -0.16
#  25    0.30   -2.16    1.78   -0.30   -0.07    0.00    0.00      -0.45   -0.73   -0.17
#  26    1.06   -1.07    0.64   -0.18   -0.06    0.00    0.00       0.38   -0.52   -0.17
#  27    0.31   -0.38    0.05    0.00   -0.14    0.00    0.00      -0.15    0.01   -0.28
#  28    0.54   -0.63    0.88    0.00   -0.12    0.00    0.00       0.67    0.00   -0.28
#  29    0.49   -0.47    0.13    0.10   -0.15    0.00    0.00       0.10    0.18   -0.28
#  30    0.62   -0.59    0.36   -0.11   -0.14    0.00    0.00       0.15   -0.22   -0.28
#  31    0.51   -0.94    1.29   -0.11   -0.14    0.00    0.00       0.60   -0.22   -0.28
#  32   -0.02   -2.39    7.57    0.24   -0.19    0.00    0.00       5.22    0.36   -0.28
#  33   -0.31   -1.09    0.42    0.67   -0.18    0.00    0.00      -0.49    1.02   -0.28
#  34    0.92   -0.62    0.25    0.00   -0.15    0.00    0.00       0.41    0.00   -0.28
#  35    1.58   -0.85    0.81   -0.49   -0.11    0.00    0.00       0.94   -0.94   -0.21
#  36    1.05   -1.08    0.96   -0.50   -0.17    0.00    0.00       0.27   -0.83   -0.28
#  37   -1.11   -0.02    0.00    0.71    0.11    0.00    0.00      -0.32    2.14    0.32
#  38    0.12   -0.05    0.00    0.59    0.28    0.00    0.00       0.94    1.23    0.58
#  39    1.44   -0.07    0.00    0.51    0.29    0.00    0.00       2.18    1.04    0.59
#  40   -3.82   -0.19    0.06    0.32    0.39    0.00    0.00      -3.23    0.49    0.60
#  41   -0.65   -0.21    0.01    0.01   -0.07    0.00    0.00      -0.91    0.03   -0.28
#  42   -0.55   -0.23    0.02    0.12   -0.07    0.00    0.00      -0.70    0.50   -0.28
#  43   -0.17   -0.51    0.17   -0.02   -0.12    0.00    0.00      -0.65   -0.05   -0.28
#  44   -0.41   -0.85    1.31    0.13   -0.06    0.00    0.00       0.12    0.42   -0.20
#  45    0.15   -1.43    3.22    0.41   -0.14    0.00    0.00       2.22    0.85   -0.28
#  46   -0.03   -0.61    0.47    0.06   -0.09    0.00    0.00      -0.21    0.17   -0.28
#  47   -0.59   -0.17    0.01    0.00   -0.05    0.00    0.00      -0.79    0.00   -0.28
#  48   -0.41   -0.35    0.20    0.20   -0.08    0.00    0.00      -0.44    0.74   -0.28
#  49   -0.49   -0.86    2.05    0.09   -0.06    0.00    0.00       0.72    0.29   -0.20

@<TRIPOS>MOLECULE
             1597       100
   49    51     0     0     0



@<TRIPOS>ATOM
      1 C1         11.3202    14.3667    64.7702 C.3        1          -0.1546
      2 C2         11.7653    15.5661    65.6096 C.3        1           0.0653
      3 O1         12.6168    15.1183    66.6662 O.3        1          -0.3060
      4 C3         13.9463    15.0687    66.4060 C.ar       1           0.3570
      5 C4         14.8224    14.6312    67.4071 C.ar       1          -0.1803
      6 C5         16.1616    14.5754    67.1602 C.ar       1          -0.0200
      7 C6         16.6227    14.9666    65.8859 C.ar       1          -0.1372
      8 C7         17.9873    14.9325    65.5668 C.ar       1          -0.0449
      9 C8         18.4006    15.3238    64.3058 C.ar       1          -0.0300
     10 C9         17.4638    15.7518    63.3513 C.ar       1          -0.0653
     11 C10        16.1381    15.7913    63.6439 C.ar       1          -0.1055
     12 C11        15.6848    15.3998    64.9165 C.ar       1           0.1796
     13 N1         14.3815    15.4276    65.2176 N.ar       1          -0.5415
     14 C12        19.8418    15.2913    63.9601 C.2        1           0.1783
     15 N2         20.5792    16.3140    63.5964 N.2        1          -0.2778
     16 N3         21.8859    15.8819    63.3553 N.pl3      1          -0.3798
     17 C13        21.9727    14.5549    63.5727 C.2        1           0.4163
     18 N4         23.1054    13.7787    63.4363 N.pl3      1          -0.8446
     19 C14        20.7133    14.1104    63.9664 C.2        1          -0.3651
     20 C15        20.3335    12.7377    64.3140 C.2        1           0.6122
     21 N5         19.0649    12.4604    64.6751 N.am       1          -0.8478
     22 O2         21.1635    11.8485    64.2761 O.2        1          -0.5413
     23 C16        22.9938    16.7413    62.9306 C.3        1           0.1781
     24 C17        22.4977    18.1821    62.7927 C.3        1          -0.1405
     25 C18        24.1120    16.6845    63.9734 C.3        1          -0.1652
     26 C19        23.5287    16.2548    61.5823 C.3        1          -0.1670
     27 H1         10.6707    14.7083    63.9642 H          1           0.0653
     28 H2         12.1958    13.8743    64.3474 H          1           0.0653
     29 H3         10.7770    13.6633    65.4012 H          1           0.0803
     30 H4         12.3084    16.2696    64.9785 H          1           0.0680
     31 H5         10.8897    16.0586    66.0325 H          1           0.0682
     32 H6         14.4377    14.3388    68.3729 H          1           0.1466
     33 H7         16.8519    14.2409    67.9205 H          1           0.1494
     34 H8         18.7098    14.6041    66.2992 H          1           0.1369
     35 H9         17.8022    16.0541    62.3712 H          1           0.1398
     36 H10        15.4310    16.1238    62.8982 H          1           0.1386
     37 H11        23.9415    14.1853    63.1596 H          1           0.4038
     38 H12        23.0656    12.8266    63.6171 H          1           0.4169
     39 H13        18.4033    13.1690    64.7052 H          1           0.4017
     40 H14        18.8136    11.5522    64.9050 H          1           0.4008
     41 H15        23.3219    18.8215    62.4768 H          1           0.0705
     42 H16        21.7011    18.2225    62.0497 H          1           0.0734
     43 H17        22.1164    18.5286    63.7533 H          1           0.0710
     44 H18        24.9362    17.3240    63.6573 H          1           0.0605
     45 H19        23.7308    17.0313    64.9340 H          1           0.0845
     46 H20        24.4653    15.6582    64.0717 H          1           0.0701
     47 H21        24.3529    16.8942    61.2663 H          1           0.0707
     48 H22        23.8822    15.2284    61.6805 H          1           0.0845
     49 H23        22.7321    16.2952    60.8393 H          1           0.0608
@<TRIPOS>BOND
     1    1    2 1
     2    1   27 1
     3    1   28 1
     4    1   29 1
     5    2    3 1
     6    2   30 1
     7    2   31 1
     8    3    4 1
     9    4   13 ar
    10    4    5 ar
    11    5    6 ar
    12    5   32 1
    13    6    7 ar
    14    6   33 1
    15    7   12 ar
    16    7    8 ar
    17    8    9 ar
    18    8   34 1
    19    9   10 ar
    20    9   14 1
    21   10   11 ar
    22   10   35 1
    23   11   12 ar
    24   11   36 1
    25   12   13 ar
    26   14   19 1
    27   14   15 2
    28   15   16 1
    29   16   17 1
    30   16   23 1
    31   17   18 1
    32   17   19 2
    33   18   37 1
    34   18   38 1
    35   19   20 1
    36   20   21 am
    37   20   22 2
    38   21   39 1
    39   21   40 1
    40   23   24 1
    41   23   25 1
    42   23   26 1
    43   24   41 1
    44   24   42 1
    45   24   43 1
    46   25   44 1
    47   25   45 1
    48   25   46 1
    49   26   47 1
    50   26   48 1
    51   26   49 1
##########                 Name:                 1597
##########          Protonation:                  100
##########               SMILES:   CCOc1ccc2cc(ccc2n1)c3c(c(n(n3)C(C)(C)C)N)C(=O)N
##########            Long Name:   5-amino-1-tert-butyl-3-(2-ethoxy-6-quinolyl)pyrazole-4-carboxamide
##########          FlexRecCode: 1
##########               Number:                   74
##########   Ligand Source File: /raid1/people/rgc/Examples/tdt/part3/ligand22set/build/ligand22set-0000001.db2.g
##########           GlobalRank: 15
##########                 Rank:                    3
##########               Setnum:                   56
##########             Matchnum:                11064
##########                Cloud:                    1
##########        Electrostatic:           -11.063869
##########        Van der Waals:           -30.572329
##########  Ligand Polar Desolv:             7.328274
########## Ligand Apolar Desolv:            -1.229618
##########      Internal Energy:             0.000000
##########      Receptor Energy: 0.0
########## Receptor Desolvation:             0.000000
########## Receptor Hydrophobic:             0.000000
##########         Total Energy: -35.54
##########        Ligand Charge:             0.000000
##########            Arbitrary:    +999.9990
##########     heavy atom count:   26
##########           pose count:   10
##########        Ligand Energy:             0.000000
# num electro vdwattr vdwrepu polsolv apolsol rdesolv rhydroe totalscore fullpol fullapo
#   1   -1.06   -1.31    0.23    0.01   -0.13    0.00    0.00      -2.27    0.02   -0.21
#   2    0.55   -1.86    0.87   -0.13   -0.08    0.00    0.00      -0.65   -0.19   -0.12
#   3   -2.75   -3.18    2.31    0.93    0.57    0.00    0.00      -2.12    1.42    0.86
#   4    3.39   -2.63    0.65   -1.03   -0.43    0.00    0.00      -0.06   -1.57   -0.66
#   5   -0.90   -4.33    2.13    0.13   -0.30    0.00    0.00      -3.28    0.20   -0.46
#   6   -0.10   -3.77    1.42   -0.01   -0.31    0.00    0.00      -2.77   -0.01   -0.46
#   7   -1.52   -2.45    0.52    0.31   -0.26    0.00    0.00      -3.40    0.48   -0.40
#   8   -0.51   -2.17    0.36    0.04   -0.28    0.00    0.00      -2.55    0.06   -0.45
#   9   -0.42   -1.95    0.34    0.13   -0.23    0.00    0.00      -2.13    0.23   -0.40
#  10   -0.99   -3.07    1.21    0.24   -0.24    0.00    0.00      -2.85    0.41   -0.42
#  11   -1.46   -3.40    1.33    0.46   -0.28    0.00    0.00      -3.35    0.76   -0.46
#  12    2.52   -2.61    0.96   -0.54   -0.45    0.00    0.00      -0.12   -0.88   -0.73
#  13   -6.47   -2.37    0.78    2.48    1.80    0.00    0.00      -3.79    3.86    2.80
#  14    1.77   -1.74    0.33   -0.39   -0.39    0.00    0.00      -0.43   -0.76   -0.77
#  15   -2.51   -2.20    0.95    0.58    0.50    0.00    0.00      -2.69    1.25    1.08
#  16   -0.34   -1.46    0.30    0.23    0.39    0.00    0.00      -0.88    0.55    0.94
#  17    0.66   -1.77    0.84   -0.29   -0.93    0.00    0.00      -1.48   -0.61   -1.98
#  18    1.06   -1.92    0.63   -0.94    0.39    0.00    0.00      -0.78   -2.00    0.83
#  19   -1.73   -1.63    0.29    0.95   -0.24    0.00    0.00      -2.36    1.64   -0.42
#  20    2.27   -2.35    0.57   -1.72   -0.33    0.00    0.00      -1.57   -2.73   -0.53
#  21   -1.57   -3.77    2.26   -0.01    1.22    0.00    0.00      -1.86   -0.01    1.96
#  22   -2.79   -3.43    1.12    3.69    0.27    0.00    0.00      -1.14    5.62    0.41
#  23   -0.85   -0.72    0.07    0.13   -0.05    0.00    0.00      -1.42    0.33   -0.12
#  24    1.20   -0.88    0.09   -0.09   -0.07    0.00    0.00       0.25   -0.22   -0.16
#  25    0.66   -1.36    0.45   -0.28   -0.07    0.00    0.00      -0.60   -0.73   -0.17
#  26    1.42   -1.22    0.80   -0.18   -0.06    0.00    0.00       0.77   -0.52   -0.17
#  27    0.33   -0.36    0.04    0.01   -0.14    0.00    0.00      -0.13    0.01   -0.28
#  28    0.53   -0.59    0.68    0.00   -0.12    0.00    0.00       0.51    0.00   -0.28
#  29    0.51   -0.54    0.23    0.10   -0.15    0.00    0.00       0.14    0.18   -0.28
#  30    0.64   -0.64    0.48   -0.11   -0.14    0.00    0.00       0.23   -0.22   -0.28
#  31    0.52   -1.13    2.23   -0.12   -0.15    0.00    0.00       1.36   -0.22   -0.28
#  32   -0.12   -2.51   10.16    0.24   -0.19    0.00    0.00       7.58    0.36   -0.28
#  33    0.15   -1.08    0.51    0.66   -0.18    0.00    0.00       0.07    1.02   -0.28
#  34    1.15   -0.58    0.24    0.00   -0.14    0.00    0.00       0.67    0.00   -0.28
#  35    1.53   -1.05    1.56   -0.51   -0.11    0.00    0.00       1.41   -0.94   -0.21
#  36    0.75   -1.34    2.29   -0.50   -0.17    0.00    0.00       1.03   -0.83   -0.28
#  37   -1.29   -0.02    0.00    0.61    0.09    0.00    0.00      -0.61    2.14    0.32
#  38   -0.51   -0.04    0.00    0.54    0.25    0.00    0.00       0.24    1.23    0.58
#  39    1.93   -0.05    0.00    0.46    0.26    0.00    0.00       2.61    1.04    0.59
#  40   -1.98   -0.11    0.01    0.30    0.37    0.00    0.00      -1.41    0.49    0.60
#  41   -0.89   -0.21    0.01    0.01   -0.06    0.00    0.00      -1.14    0.03   -0.28
#  42   -0.78   -0.25    0.03    0.13   -0.08    0.00    0.00      -0.94    0.50   -0.28
#  43   -0.37   -0.48    0.11   -0.02   -0.12    0.00    0.00      -0.88   -0.05   -0.28
#  44   -0.46   -0.43    0.25    0.10   -0.05    0.00    0.00      -0.58    0.42   -0.20
#  45   -0.09   -0.78    0.40    0.38   -0.12    0.00    0.00      -0.22    0.85   -0.28
#  46   -0.18   -0.36    0.10    0.05   -0.08    0.00    0.00      -0.47    0.17   -0.28
#  47   -0.81   -0.19    0.02    0.00   -0.06    0.00    0.00      -1.04    0.00   -0.28
#  48   -0.51   -0.46    0.42    0.21   -0.08    0.00    0.00      -0.42    0.74   -0.28
#  49   -0.65   -0.85    1.45    0.10   -0.07    0.00    0.00      -0.02    0.29   -0.20

@<TRIPOS>MOLECULE
             1597       100
   49    51     0     0     0



@<TRIPOS>ATOM
      1 C1         11.3612    14.4432    65.0147 C.3        1          -0.1546
      2 C2         11.8071    15.6761    65.8037 C.3        1           0.0653
      3 O1         12.7303    15.2824    66.8210 O.3        1          -0.3060
      4 C3         14.0447    15.2739    66.4893 C.ar       1           0.3570
      5 C4         14.9890    14.8901    67.4496 C.ar       1          -0.1803
      6 C5         16.3140    14.8761    67.1308 C.ar       1          -0.0200
      7 C6         16.6909    15.2545    65.8255 C.ar       1          -0.1372
      8 C7         18.0366    15.2614    65.4328 C.ar       1          -0.0449
      9 C8         18.3666    15.6386    64.1431 C.ar       1          -0.0300
     10 C9         17.3646    16.0118    63.2329 C.ar       1          -0.0653
     11 C10        16.0561    16.0112    63.5969 C.ar       1          -0.1055
     12 C11        15.6868    15.6325    64.9002 C.ar       1           0.1796
     13 N1         14.4016    15.6211    65.2717 N.ar       1          -0.5415
     14 C12        19.7872    15.6492    63.7197 C.2        1           0.1783
     15 N2         20.4661    16.6889    63.2952 N.2        1          -0.2778
     16 N3         21.7728    16.2978    62.9917 N.pl3      1          -0.3798
     17 C13        21.9194    14.9799    63.2312 C.2        1           0.4163
     18 N4         23.0706    14.2412    63.0488 N.pl3      1          -0.8446
     19 C14        20.7002    14.5002    63.7024 C.2        1          -0.3651
     20 C15        20.3899    13.1230    64.0983 C.2        1           0.6122
     21 N5         19.1537    12.8094    64.5340 N.am       1          -0.8478
     22 O2         21.2486    12.2630    64.0331 O.2        1          -0.5413
     23 C16        22.8240    17.1860    62.4894 C.3        1           0.1781
     24 C17        22.2690    18.6049    62.3495 C.3        1          -0.1405
     25 C18        23.9983    17.1920    63.4702 C.3        1          -0.1652
     26 C19        23.3025    16.6885    61.1240 C.3        1          -0.1670
     27 H1         10.6571    14.7436    64.2388 H          1           0.0653
     28 H2         12.2300    13.9727    64.5547 H          1           0.0653
     29 H3         10.8789    13.7354    65.6888 H          1           0.0803
     30 H4         12.2894    16.3840    65.1295 H          1           0.0680
     31 H5         10.9383    16.1468    66.2638 H          1           0.0682
     32 H6         14.6679    14.6061    68.4408 H          1           0.1466
     33 H7         17.0560    14.5832    67.8588 H          1           0.1494
     34 H8         18.8090    14.9752    66.1310 H          1           0.1369
     35 H9         17.6382    16.3038    62.2298 H          1           0.1398
     36 H10        15.2981    16.3018    62.8845 H          1           0.1386
     37 H11        23.8752    14.6707    62.7184 H          1           0.4038
     38 H12        23.0754    13.2926    63.2510 H          1           0.4169
     39 H13        18.4693    13.4949    64.5858 H          1           0.4017
     40 H14        18.9485    11.8983    64.7959 H          1           0.4008
     41 H15        23.0511    19.2658    61.9758 H          1           0.0705
     42 H16        21.4325    18.6005    61.6506 H          1           0.0734
     43 H17        21.9279    18.9592    63.3222 H          1           0.0710
     44 H18        24.7804    17.8528    63.0965 H          1           0.0605
     45 H19        23.6573    17.5466    64.4429 H          1           0.0845
     46 H20        24.3935    16.1813    63.5701 H          1           0.0701
     47 H21        24.0847    17.3493    60.7502 H          1           0.0707
     48 H22        23.6980    15.6777    61.2236 H          1           0.0845
     49 H23        22.4660    16.6842    60.4252 H          1           0.0608
@<TRIPOS>BOND
     1    1    2 1
     2    1   27 1
     3    1   28 1
     4    1   29 1
     5    2    3 1
     6    2   30 1
     7    2   31 1
     8    3    4 1
     9    4   13 ar
    10    4    5 ar
    11    5    6 ar
    12    5   32 1
    13    6    7 ar
    14    6   33 1
    15    7   12 ar
    16    7    8 ar
    17    8    9 ar
    18    8   34 1
    19    9   10 ar
    20    9   14 1
    21   10   11 ar
    22   10   35 1
    23   11   12 ar
    24   11   36 1
    25   12   13 ar
    26   14   19 1
    27   14   15 2
    28   15   16 1
    29   16   17 1
    30   16   23 1
    31   17   18 1
    32   17   19 2
    33   18   37 1
    34   18   38 1
    35   19   20 1
    36   20   21 am
    37   20   22 2
    38   21   39 1
    39   21   40 1
    40   23   24 1
    41   23   25 1
    42   23   26 1
    43   24   41 1
    44   24   42 1
    45   24   43 1
    46   25   44 1
    47   25   45 1
    48   25   46 1
    49   26   47 1
    50   26   48 1
    51   26   49 1
##########                 Name:                 1597
##########          Protonation:                  100
##########               SMILES:   CCOc1ccc2cc(ccc2n1)c3c(c(n(n3)C(C)(C)C)N)C(=O)N
##########            Long Name:   5-amino-1-tert-butyl-3-(2-ethoxy-6-quinolyl)pyrazole-4-carboxamide
##########          FlexRecCode: 1
##########               Number:                   74
##########   Ligand Source File: /raid1/people/rgc/Examples/tdt/part3/ligand22set/build/ligand22set-0000001.db2.g
##########           GlobalRank: 20
##########                 Rank:                    4
##########               Setnum:                   56
##########             Matchnum:                 3985
##########                Cloud:                    1
##########        Electrostatic:           -11.814887
##########        Van der Waals:           -25.879007
##########  Ligand Polar Desolv:             7.324662
########## Ligand Apolar Desolv:            -1.243985
##########      Internal Energy:             0.000000
##########      Receptor Energy: 0.0
########## Receptor Desolvation:             0.000000
########## Receptor Hydrophobic:             0.000000
##########         Total Energy: -31.61
##########        Ligand Charge:             0.000000
##########            Arbitrary:    +999.9990
##########     heavy atom count:   26
##########           pose count:   10
##########        Ligand Energy:             0.000000
# num electro vdwattr vdwrepu polsolv apolsol rdesolv rhydroe totalscore fullpol fullapo
#   1   -1.04   -1.42    0.33    0.01   -0.14    0.00    0.00      -2.25    0.02   -0.21
#   2    0.51   -1.70    0.67   -0.13   -0.08    0.00    0.00      -0.73   -0.19   -0.12
#   3   -2.35   -3.34    2.01    0.90    0.55    0.00    0.00      -2.23    1.42    0.86
#   4    2.65   -3.40    2.00   -1.00   -0.42    0.00    0.00      -0.17   -1.57   -0.66
#   5   -0.20   -5.34    4.40    0.13   -0.30    0.00    0.00      -1.32    0.20   -0.46
#   6   -0.01   -4.49    3.46   -0.01   -0.31    0.00    0.00      -1.36   -0.01   -0.46
#   7   -1.18   -2.89    1.24    0.31   -0.26    0.00    0.00      -2.77    0.48   -0.40
#   8   -0.44   -2.18    0.44    0.04   -0.28    0.00    0.00      -2.41    0.06   -0.45
#   9   -0.40   -1.95    0.34    0.13   -0.23    0.00    0.00      -2.11    0.23   -0.40
#  10   -0.97   -3.16    1.27    0.24   -0.25    0.00    0.00      -2.86    0.41   -0.42
#  11   -1.39   -3.40    1.37    0.45   -0.28    0.00    0.00      -3.25    0.76   -0.46
#  12    2.22   -3.16    2.78   -0.54   -0.45    0.00    0.00       0.85   -0.88   -0.73
#  13   -5.71   -3.08    3.27    2.41    1.75    0.00    0.00      -1.36    3.86    2.80
#  14    1.78   -1.71    0.29   -0.39   -0.40    0.00    0.00      -0.43   -0.76   -0.77
#  15   -2.96   -2.46    1.45    0.58    0.50    0.00    0.00      -2.88    1.25    1.08
#  16   -0.44   -1.47    0.30    0.23    0.40    0.00    0.00      -0.98    0.55    0.94
#  17    0.46   -2.12    2.23   -0.28   -0.90    0.00    0.00      -0.60   -0.61   -1.98
#  18    1.71   -2.52    2.89   -0.90    0.37    0.00    0.00       1.55   -2.00    0.83
#  19   -1.60   -1.73    0.55    0.94   -0.24    0.00    0.00      -2.08    1.64   -0.42
#  20    2.10   -2.24    0.39   -1.71   -0.33    0.00    0.00      -1.80   -2.73   -0.53
#  21   -1.69   -4.02    3.48   -0.01    1.24    0.00    0.00      -0.99   -0.01    1.96
#  22   -2.60   -3.37    1.15    3.68    0.27    0.00    0.00      -0.88    5.62    0.41
#  23   -0.86   -0.74    0.06    0.13   -0.05    0.00    0.00      -1.45    0.33   -0.12
#  24    1.09   -1.19    0.22   -0.10   -0.07    0.00    0.00      -0.04   -0.22   -0.16
#  25    0.64   -1.27    0.33   -0.29   -0.07    0.00    0.00      -0.66   -0.73   -0.17
#  26    1.68   -0.99    0.37   -0.19   -0.06    0.00    0.00       0.82   -0.52   -0.17
#  27    0.32   -0.35    0.04    0.01   -0.14    0.00    0.00      -0.13    0.01   -0.28
#  28    0.53   -0.74    1.39    0.00   -0.11    0.00    0.00       1.06    0.00   -0.28
#  29    0.52   -0.69    0.45    0.10   -0.15    0.00    0.00       0.23    0.18   -0.28
#  30    0.61   -0.43    0.10   -0.11   -0.14    0.00    0.00       0.04   -0.22   -0.28
#  31    0.49   -1.15    3.75   -0.12   -0.15    0.00    0.00       2.82   -0.22   -0.28
#  32   -0.52   -2.07    3.90    0.25   -0.19    0.00    0.00       1.37    0.36   -0.28
#  33   -0.68   -1.11    0.61    0.66   -0.18    0.00    0.00      -0.70    1.02   -0.28
#  34    0.95   -0.52    0.17    0.00   -0.14    0.00    0.00       0.46    0.00   -0.28
#  35    1.59   -1.03    1.34   -0.53   -0.12    0.00    0.00       1.25   -0.94   -0.21
#  36    0.77   -1.28    2.14   -0.49   -0.17    0.00    0.00       0.96   -0.83   -0.28
#  37   -1.51   -0.02    0.00    0.58    0.09    0.00    0.00      -0.86    2.14    0.32
#  38   -1.14   -0.04    0.00    0.52    0.25    0.00    0.00      -0.41    1.23    0.58
#  39    1.97   -0.07    0.01    0.50    0.28    0.00    0.00       2.68    1.04    0.59
#  40   -1.80   -0.12    0.01    0.32    0.39    0.00    0.00      -1.21    0.49    0.60
#  41   -0.87   -0.32    0.05    0.01   -0.08    0.00    0.00      -1.20    0.03   -0.28
#  42   -0.73   -0.38    0.14    0.16   -0.09    0.00    0.00      -0.89    0.50   -0.28
#  43   -0.25   -0.69    0.33   -0.02   -0.13    0.00    0.00      -0.76   -0.05   -0.28
#  44   -0.44   -0.43    0.21    0.11   -0.05    0.00    0.00      -0.59    0.42   -0.20
#  45   -0.04   -0.74    0.34    0.38   -0.12    0.00    0.00      -0.19    0.85   -0.28
#  46   -0.21   -0.30    0.05    0.04   -0.07    0.00    0.00      -0.48    0.17   -0.28
#  47   -0.94   -0.17    0.01    0.00   -0.05    0.00    0.00      -1.16    0.00   -0.28
#  48   -0.64   -0.47    0.40    0.20   -0.07    0.00    0.00      -0.58    0.74   -0.28
#  49   -0.78   -0.46    0.25    0.10   -0.07    0.00    0.00      -0.96    0.29   -0.20

@<TRIPOS>MOLECULE
             1597       100
   49    51     0     0     0



@<TRIPOS>ATOM
      1 C1         11.3113    13.9617    64.9105 C.3        1          -0.1546
      2 C2         11.7574    15.0538    65.8850 C.3        1           0.0653
      3 O1         12.7261    14.5188    66.7891 O.3        1          -0.3060
      4 C3         14.0273    14.6052    66.4187 C.ar       1           0.3570
      5 C4         15.0148    14.0903    67.2677 C.ar       1          -0.1803
      6 C5         16.3272    14.1694    66.9087 C.ar       1          -0.0200
      7 C6         16.6471    14.7763    65.6764 C.ar       1          -0.1372
      8 C7         17.9770    14.8892    65.2475 C.ar       1          -0.0449
      9 C8         18.2506    15.4908    64.0320 C.ar       1          -0.0300
     10 C9         17.2076    15.9851    63.2323 C.ar       1          -0.0653
     11 C10        15.9136    15.8844    63.6328 C.ar       1          -0.1055
     12 C11        15.6012    15.2777    64.8628 C.ar       1           0.1796
     13 N1         14.3312    15.1658    65.2681 N.ar       1          -0.5415
     14 C12        19.6541    15.6148    63.5711 C.2        1           0.1783
     15 N2         20.2928    16.7310    63.3101 N.2        1          -0.2778
     16 N3         21.5961    16.4356    62.9019 N.pl3      1          -0.3798
     17 C13        21.7817    15.1010    62.9063 C.2        1           0.4163
     18 N4         22.9421    14.4380    62.5626 N.pl3      1          -0.8446
     19 C14        20.5920    14.5126    63.3271 C.2        1          -0.3651
     20 C15        20.3282    13.0797    63.4900 C.2        1           0.6122
     21 N5         19.1164    12.6605    63.9050 N.am       1          -0.8478
     22 O2         21.2034    12.2687    63.2504 O.2        1          -0.5413
     23 C16        22.6075    17.4267    62.5261 C.3        1           0.1781
     24 C17        22.0152    18.8320    62.6503 C.3        1          -0.1405
     25 C18        23.8165    17.2989    63.4550 C.3        1          -0.1652
     26 C19        23.0468    17.1842    61.0808 C.3        1          -0.1670
     27 H1         10.5724    14.3698    64.2210 H          1           0.0653
     28 H2         12.1732    13.6021    64.3487 H          1           0.0653
     29 H3         10.8705    13.1354    65.4681 H          1           0.0803
     30 H4         12.1982    15.8803    65.3274 H          1           0.0680
     31 H5         10.8955    15.4135    66.4470 H          1           0.0682
     32 H6         14.7370    13.6317    68.2052 H          1           0.1466
     33 H7         17.1020    13.7779    67.5512 H          1           0.1494
     34 H8         18.7809    14.5103    65.8609 H          1           0.1369
     35 H9         17.4373    16.4522    62.2861 H          1           0.1398
     36 H10        15.1235    16.2704    63.0058 H          1           0.1386
     37 H11        23.7239    14.9408    62.2851 H          1           0.4038
     38 H12        22.9761    13.4693    62.5984 H          1           0.4169
     39 H13        18.4187    13.3069    64.0959 H          1           0.4017
     40 H14        18.9419    11.7124    64.0128 H          1           0.4008
     41 H15        22.7677    19.5694    62.3707 H          1           0.0705
     42 H16        21.1539    18.9230    61.9883 H          1           0.0734
     43 H17        21.7020    19.0046    63.6799 H          1           0.0710
     44 H18        24.5690    18.0362    63.1754 H          1           0.0605
     45 H19        23.5035    17.4718    64.4847 H          1           0.0845
     46 H20        24.2383    16.2978    63.3668 H          1           0.0701
     47 H21        23.7993    17.9215    60.8011 H          1           0.0707
     48 H22        23.4688    16.1831    60.9923 H          1           0.0845
     49 H23        22.1855    17.2752    60.4190 H          1           0.0608
@<TRIPOS>BOND
     1    1    2 1
     2    1   27 1
     3    1   28 1
     4    1   29 1
     5    2    3 1
     6    2   30 1
     7    2   31 1
     8    3    4 1
     9    4   13 ar
    10    4    5 ar
    11    5    6 ar
    12    5   32 1
    13    6    7 ar
    14    6   33 1
    15    7   12 ar
    16    7    8 ar
    17    8    9 ar
    18    8   34 1
    19    9   10 ar
    20    9   14 1
    21   10   11 ar
    22   10   35 1
    23   11   12 ar
    24   11   36 1
    25   12   13 ar
    26   14   19 1
    27   14   15 2
    28   15   16 1
    29   16   17 1
    30   16   23 1
    31   17   18 1
    32   17   19 2
    33   18   37 1
    34   18   38 1
    35   19   20 1
    36   20   21 am
    37   20   22 2
    38   21   39 1
    39   21   40 1
    40   23   24 1
    41   23   25 1
    42   23   26 1
    43   24   41 1
    44   24   42 1
    45   24   43 1
    46   25   44 1
    47   25   45 1
    48   25   46 1
    49   26   47 1
    50   26   48 1
    51   26   49 1
##########                 Name:                 1597
##########          Protonation:                  100
##########               SMILES:   CCOc1ccc2cc(ccc2n1)c3c(c(n(n3)C(C)(C)C)N)C(=O)N
##########            Long Name:   5-amino-1-tert-butyl-3-(2-ethoxy-6-quinolyl)pyrazole-4-carboxamide
##########          FlexRecCode: 1
##########               Number:                   74
##########   Ligand Source File: /raid1/people/rgc/Examples/tdt/part3/ligand22set/build/ligand22set-0000001.db2.g
##########           GlobalRank: 20
##########                 Rank:                    5
##########               Setnum:                   56
##########             Matchnum:                 1753
##########                Cloud:                    1
##########        Electrostatic:            -9.101694
##########        Van der Waals:           -28.203798
##########  Ligand Polar Desolv:             7.194304
########## Ligand Apolar Desolv:            -1.297543
##########      Internal Energy:             0.000000
##########      Receptor Energy: 0.0
########## Receptor Desolvation:             0.000000
########## Receptor Hydrophobic:             0.000000
##########         Total Energy: -31.41
##########        Ligand Charge:             0.000000
##########            Arbitrary:    +999.9990
##########     heavy atom count:   26
##########           pose count:   10
##########        Ligand Energy:             0.000000
# num electro vdwattr vdwrepu polsolv apolsol rdesolv rhydroe totalscore fullpol fullapo
#   1   -0.96   -1.25    0.18    0.01   -0.14    0.00    0.00      -2.16    0.02   -0.21
#   2    0.48   -1.67    0.63   -0.12   -0.08    0.00    0.00      -0.76   -0.19   -0.12
#   3   -2.64   -2.16    0.63    0.94    0.57    0.00    0.00      -2.66    1.42    0.86
#   4    3.53   -2.33    0.64   -1.03   -0.43    0.00    0.00       0.38   -1.57   -0.66
#   5   -1.41   -3.29    1.07    0.13   -0.31    0.00    0.00      -3.80    0.20   -0.46
#   6   -0.15   -3.24    1.16   -0.01   -0.30    0.00    0.00      -2.54   -0.01   -0.46
#   7   -1.70   -2.47    0.68    0.32   -0.26    0.00    0.00      -3.44    0.48   -0.40
#   8   -0.57   -2.10    0.33    0.04   -0.28    0.00    0.00      -2.58    0.06   -0.45
#   9   -0.43   -2.05    0.39    0.13   -0.23    0.00    0.00      -2.19    0.23   -0.40
#  10   -0.86   -3.92    2.81    0.24   -0.25    0.00    0.00      -1.97    0.41   -0.42
#  11   -1.19   -4.39    2.64    0.46   -0.28    0.00    0.00      -2.76    0.76   -0.46
#  12    2.34   -3.03    1.90   -0.52   -0.43    0.00    0.00       0.25   -0.88   -0.73
#  13   -5.95   -2.73    1.63    2.38    1.73    0.00    0.00      -2.95    3.86    2.80
#  14    1.92   -1.76    0.32   -0.39   -0.40    0.00    0.00      -0.32   -0.76   -0.77
#  15   -2.87   -2.37    1.39    0.58    0.50    0.00    0.00      -2.77    1.25    1.08
#  16   -0.63   -1.49    0.30    0.23    0.40    0.00    0.00      -1.19    0.55    0.94
#  17    0.99   -1.67    0.52   -0.29   -0.93    0.00    0.00      -1.38   -0.61   -1.98
#  18    0.03   -1.81    0.40   -0.96    0.40    0.00    0.00      -1.95   -2.00    0.83
#  19   -1.95   -1.63    0.26    0.95   -0.24    0.00    0.00      -2.60    1.64   -0.42
#  20    2.37   -2.47    0.91   -1.70   -0.33    0.00    0.00      -1.23   -2.73   -0.53
#  21   -1.75   -4.01    2.88   -0.01    1.20    0.00    0.00      -1.68   -0.01    1.96
#  22   -2.49   -3.38    1.34    3.68    0.27    0.00    0.00      -0.59    5.62    0.41
#  23   -0.79   -0.74    0.07    0.13   -0.05    0.00    0.00      -1.38    0.33   -0.12
#  24    1.26   -0.88    0.10   -0.10   -0.07    0.00    0.00       0.30   -0.22   -0.16
#  25    0.57   -1.38    0.38   -0.30   -0.07    0.00    0.00      -0.80   -0.73   -0.17
#  26    1.31   -1.23    0.88   -0.18   -0.06    0.00    0.00       0.74   -0.52   -0.17
#  27    0.23   -0.46    0.11    0.00   -0.13    0.00    0.00      -0.24    0.01   -0.28
#  28    0.54   -0.59    0.69    0.00   -0.11    0.00    0.00       0.52    0.00   -0.28
#  29    0.46   -0.42    0.08    0.10   -0.15    0.00    0.00       0.07    0.18   -0.28
#  30    0.55   -0.69    0.46   -0.11   -0.14    0.00    0.00       0.06   -0.22   -0.28
#  31    0.43   -0.93    1.63   -0.12   -0.15    0.00    0.00       0.87   -0.22   -0.28
#  32    0.83   -1.40    2.42    0.22   -0.17    0.00    0.00       1.90    0.36   -0.28
#  33    0.57   -0.89    0.40    0.63   -0.17    0.00    0.00       0.54    1.02   -0.28
#  34    1.33   -0.47    0.09    0.00   -0.14    0.00    0.00       0.82    0.00   -0.28
#  35    1.27   -1.93    8.48   -0.54   -0.12    0.00    0.00       7.16   -0.94   -0.21
#  36    0.84   -1.80    2.60   -0.52   -0.18    0.00    0.00       0.94   -0.83   -0.28
#  37   -0.84   -0.02    0.00    0.61    0.09    0.00    0.00      -0.15    2.14    0.32
#  38    0.26   -0.03    0.00    0.55    0.26    0.00    0.00       1.04    1.23    0.58
#  39    2.11   -0.06    0.00    0.46    0.26    0.00    0.00       2.77    1.04    0.59
#  40   -1.54   -0.11    0.01    0.30    0.37    0.00    0.00      -0.97    0.49    0.60
#  41   -0.95   -0.20    0.01    0.01   -0.06    0.00    0.00      -1.20    0.03   -0.28
#  42   -0.81   -0.25    0.03    0.15   -0.08    0.00    0.00      -0.96    0.50   -0.28
#  43   -0.43   -0.50    0.16   -0.02   -0.11    0.00    0.00      -0.91   -0.05   -0.28
#  44   -0.42   -0.42    0.19    0.12   -0.06    0.00    0.00      -0.60    0.42   -0.20
#  45   -0.07   -0.71    0.24    0.39   -0.13    0.00    0.00      -0.27    0.85   -0.28
#  46   -0.13   -0.46    0.19    0.05   -0.09    0.00    0.00      -0.43    0.17   -0.28
#  47   -0.76   -0.19    0.02    0.00   -0.05    0.00    0.00      -0.98    0.00   -0.28
#  48   -0.46   -0.39    0.28    0.19   -0.07    0.00    0.00      -0.45    0.74   -0.28
#  49   -0.59   -1.06    2.69    0.10   -0.07    0.00    0.00       1.07    0.29   -0.20

@<TRIPOS>MOLECULE
             1597       100
   49    51     0     0     0



@<TRIPOS>ATOM
      1 C1         11.1010    14.2017    64.3131 C.3        1          -0.1546
      2 C2         11.4235    15.5320    64.9969 C.3        1           0.0653
      3 O1         12.2633    15.2946    66.1285 O.3        1          -0.3060
      4 C3         13.6021    15.3150    65.9163 C.ar       1           0.3570
      5 C4         14.4678    15.0824    66.9922 C.ar       1          -0.1803
      6 C5         15.8162    15.0993    66.7944 C.ar       1          -0.0200
      7 C6         16.2971    15.3544    65.4932 C.ar       1          -0.1372
      8 C7         17.6720    15.3851    65.2216 C.ar       1          -0.0449
      9 C8         18.1049    15.6383    63.9321 C.ar       1          -0.0300
     10 C9         17.1776    15.8629    62.9019 C.ar       1          -0.0653
     11 C10        15.8420    15.8372    63.1476 C.ar       1          -0.1055
     12 C11        15.3688    15.5820    64.4474 C.ar       1           0.1796
     13 N1         14.0562    15.5475    64.7038 N.ar       1          -0.5415
     14 C12        19.5571    15.6731    63.6363 C.2        1           0.1783
     15 N2         20.2312    16.6935    63.1606 N.2        1          -0.2778
     16 N3         21.5746    16.3366    63.0179 N.pl3      1          -0.3798
     17 C13        21.7498    15.0605    63.4136 C.2        1           0.4163
     18 N4         22.9409    14.3638    63.4157 N.pl3      1          -0.8446
     19 C14        20.5119    14.5748    63.8263 C.2        1          -0.3651
     20 C15        20.2203    13.2342    64.3434 C.2        1           0.6122
     21 N5         18.9623    12.9088    64.7011 N.am       1          -0.8478
     22 O2         21.1143    12.4151    64.4493 O.2        1          -0.5413
     23 C16        22.6323    17.2165    62.5145 C.3        1           0.1781
     24 C17        22.0376    18.5836    62.1704 C.3        1          -0.1405
     25 C18        23.7097    17.3845    63.5878 C.3        1          -0.1652
     26 C19        23.2541    16.6003    61.2597 C.3        1          -0.1670
     27 H1         10.4604    14.3828    63.4501 H          1           0.0653
     28 H2         12.0263    13.7278    63.9859 H          1           0.0653
     29 H3         10.5864    13.5471    65.0165 H          1           0.0803
     30 H4         11.9380    16.1867    64.2935 H          1           0.0680
     31 H5         10.4982    16.0060    65.3242 H          1           0.0682
     32 H6         14.0678    14.8904    67.9768 H          1           0.1466
     33 H7         16.4986    14.9223    67.6125 H          1           0.1494
     34 H8         18.3872    15.2130    66.0122 H          1           0.1369
     35 H9         17.5311    16.0593    61.9005 H          1           0.1398
     36 H10        15.1423    16.0127    62.3438 H          1           0.1386
     37 H11        23.7552    14.7944    63.1116 H          1           0.4038
     38 H12        22.9640    13.4435    63.7212 H          1           0.4169
     39 H13        18.2498    13.5616    64.6165 H          1           0.4017
     40 H14        18.7695    12.0218    65.0431 H          1           0.4008
     41 H15        22.8246    19.2383    61.7959 H          1           0.0705
     42 H16        21.2701    18.4638    61.4057 H          1           0.0734
     43 H17        21.5945    19.0225    63.0643 H          1           0.0710
     44 H18        24.4967    18.0391    63.2133 H          1           0.0605
     45 H19        23.2667    17.8237    64.4817 H          1           0.0845
     46 H20        24.1332    16.4107    63.8331 H          1           0.0701
     47 H21        24.0410    17.2548    60.8852 H          1           0.0707
     48 H22        23.6778    15.6263    61.5048 H          1           0.0845
     49 H23        22.4865    16.4805    60.4951 H          1           0.0608
@<TRIPOS>BOND
     1    1    2 1
     2    1   27 1
     3    1   28 1
     4    1   29 1
     5    2    3 1
     6    2   30 1
     7    2   31 1
     8    3    4 1
     9    4   13 ar
    10    4    5 ar
    11    5    6 ar
    12    5   32 1
    13    6    7 ar
    14    6   33 1
    15    7   12 ar
    16    7    8 ar
    17    8    9 ar
    18    8   34 1
    19    9   10 ar
    20    9   14 1
    21   10   11 ar
    22   10   35 1
    23   11   12 ar
    24   11   36 1
    25   12   13 ar
    26   14   19 1
    27   14   15 2
    28   15   16 1
    29   16   17 1
    30   16   23 1
    31   17   18 1
    32   17   19 2
    33   18   37 1
    34   18   38 1
    35   19   20 1
    36   20   21 am
    37   20   22 2
    38   21   39 1
    39   21   40 1
    40   23   24 1
    41   23   25 1
    42   23   26 1
    43   24   41 1
    44   24   42 1
    45   24   43 1
    46   25   44 1
    47   25   45 1
    48   25   46 1
    49   26   47 1
    50   26   48 1
    51   26   49 1
##########                 Name:                 1597
##########          Protonation:                  100
##########               SMILES:   CCOc1ccc2cc(ccc2n1)c3c(c(n(n3)C(C)(C)C)N)C(=O)N
##########            Long Name:   5-amino-1-tert-butyl-3-(2-ethoxy-6-quinolyl)pyrazole-4-carboxamide
##########          FlexRecCode: 1
##########               Number:                   73
##########   Ligand Source File: /raid1/people/rgc/Examples/tdt/part3/ligand22set/build/ligand22set-0000001.db2.g
##########           GlobalRank: 20
##########                 Rank:                    3
##########               Setnum:                   56
##########             Matchnum:                 1576
##########                Cloud:                    1
##########        Electrostatic:           -11.865090
##########        Van der Waals:           -23.761639
##########  Ligand Polar Desolv:             7.448564
########## Ligand Apolar Desolv:            -1.217218
##########      Internal Energy:             0.000000
##########      Receptor Energy: 0.0
########## Receptor Desolvation:             0.000000
########## Receptor Hydrophobic:             0.000000
##########         Total Energy: -29.4
##########        Ligand Charge:             0.000000
##########            Arbitrary:    +999.9990
##########     heavy atom count:   26
##########           pose count:   10
##########        Ligand Energy:             0.000000
# num electro vdwattr vdwrepu polsolv apolsol rdesolv rhydroe totalscore fullpol fullapo
#   1   -1.05   -1.35    0.26    0.01   -0.13    0.00    0.00      -2.27    0.02   -0.21
#   2    0.54   -1.81    0.82   -0.13   -0.08    0.00    0.00      -0.65   -0.19   -0.12
#   3   -2.61   -3.36    2.64    0.93    0.56    0.00    0.00      -1.84    1.42    0.86
#   4    3.06   -2.82    0.85   -1.03   -0.43    0.00    0.00      -0.38   -1.57   -0.66
#   5   -0.57   -4.60    2.43    0.13   -0.30    0.00    0.00      -2.92    0.20   -0.46
#   6   -0.05   -3.87    1.33   -0.01   -0.31    0.00    0.00      -2.91   -0.01   -0.46
#   7   -1.28   -2.59    0.68    0.31   -0.26    0.00    0.00      -3.14    0.48   -0.40
#   8   -0.44   -2.19    0.39    0.04   -0.28    0.00    0.00      -2.48    0.06   -0.45
#   9   -0.38   -1.89    0.30    0.13   -0.23    0.00    0.00      -2.07    0.23   -0.40
#  10   -0.94   -2.99    1.13    0.24   -0.25    0.00    0.00      -2.80    0.41   -0.42
#  11   -1.42   -3.29    1.24    0.45   -0.27    0.00    0.00      -3.30    0.76   -0.46
#  12    2.32   -2.81    1.59   -0.54   -0.45    0.00    0.00       0.11   -0.88   -0.73
#  13   -6.09   -2.56    1.34    2.46    1.78    0.00    0.00      -3.08    3.86    2.80
#  14    1.61   -1.65    0.25   -0.40   -0.40    0.00    0.00      -0.59   -0.76   -0.77
#  15   -2.35   -1.95    0.58    0.58    0.50    0.00    0.00      -2.65    1.25    1.08
#  16   -0.41   -1.52    0.41    0.23    0.39    0.00    0.00      -0.91    0.55    0.94
#  17    0.64   -1.91    1.18   -0.30   -0.96    0.00    0.00      -1.35   -0.61   -1.98
#  18    1.29   -2.19    0.90   -0.97    0.40    0.00    0.00      -0.57   -2.00    0.83
#  19   -1.63   -1.67    0.32    0.96   -0.25    0.00    0.00      -2.27    1.64   -0.42
#  20    1.98   -2.56    0.61   -1.75   -0.34    0.00    0.00      -2.07   -2.73   -0.53
#  21   -0.60   -4.42    3.38   -0.01    1.24    0.00    0.00      -0.41   -0.01    1.96
#  22   -3.06   -4.26    2.13    3.74    0.27    0.00    0.00      -1.19    5.62    0.41
#  23   -0.75   -0.75    0.09    0.13   -0.05    0.00    0.00      -1.32    0.33   -0.12
#  24    1.04   -0.85    0.08   -0.09   -0.07    0.00    0.00       0.11   -0.22   -0.16
#  25    0.56   -1.29    0.39   -0.28   -0.07    0.00    0.00      -0.68   -0.73   -0.17
#  26    1.34   -1.47    1.44   -0.18   -0.06    0.00    0.00       1.06   -0.52   -0.17
#  27    0.33   -0.35    0.04    0.01   -0.15    0.00    0.00      -0.12    0.01   -0.28
#  28    0.52   -0.63    0.82    0.00   -0.12    0.00    0.00       0.60    0.00   -0.28
#  29    0.51   -0.61    0.35    0.10   -0.15    0.00    0.00       0.19    0.18   -0.28
#  30    0.63   -0.53    0.24   -0.11   -0.14    0.00    0.00       0.09   -0.22   -0.28
#  31    0.51   -1.17    3.11   -0.12   -0.15    0.00    0.00       2.19   -0.22   -0.28
#  32   -0.42   -2.81   14.05    0.25   -0.19    0.00    0.00      10.88    0.36   -0.28
#  33   -0.24   -1.06    0.40    0.66   -0.18    0.00    0.00      -0.42    1.02   -0.28
#  34    0.99   -0.57    0.22    0.00   -0.14    0.00    0.00       0.50    0.00   -0.28
#  35    1.53   -1.03    1.48   -0.51   -0.11    0.00    0.00       1.35   -0.94   -0.21
#  36    0.95   -1.13    1.23   -0.50   -0.17    0.00    0.00       0.39   -0.83   -0.28
#  37   -1.45   -0.02    0.00    0.66    0.10    0.00    0.00      -0.72    2.14    0.32
#  38   -0.62   -0.05    0.00    0.58    0.27    0.00    0.00       0.19    1.23    0.58
#  39    1.66   -0.06    0.01    0.50    0.28    0.00    0.00       2.38    1.04    0.59
#  40   -3.26   -0.16    0.03    0.32    0.39    0.00    0.00      -2.69    0.49    0.60
#  41   -0.82   -0.19    0.01    0.01   -0.06    0.00    0.00      -1.06    0.03   -0.28
#  42   -0.68   -0.25    0.03    0.13   -0.08    0.00    0.00      -0.84    0.50   -0.28
#  43   -0.27   -0.45    0.11   -0.02   -0.12    0.00    0.00      -0.75   -0.05   -0.28
#  44   -0.42   -0.40    0.21    0.10   -0.05    0.00    0.00      -0.57    0.42   -0.20
#  45   -0.03   -0.78    0.50    0.36   -0.12    0.00    0.00      -0.07    0.85   -0.28
#  46   -0.15   -0.33    0.08    0.05   -0.08    0.00    0.00      -0.44    0.17   -0.28
#  47   -0.76   -0.21    0.03    0.00   -0.06    0.00    0.00      -1.00    0.00   -0.28
#  48   -0.49   -0.59    0.83    0.23   -0.09    0.00    0.00      -0.10    0.74   -0.28
#  49   -0.61   -1.09    2.84    0.10   -0.07    0.00    0.00       1.17    0.29   -0.20

@<TRIPOS>MOLECULE
             1597       100
   49    51     0     0     0



@<TRIPOS>ATOM
      1 C1         11.3365    14.2835    65.0533 C.3        1          -0.1546
      2 C2         11.8095    15.4800    65.8815 C.3        1           0.0653
      3 O1         12.7372    15.0357    66.8734 O.3        1          -0.3060
      4 C3         14.0477    15.0197    66.5271 C.ar       1           0.3570
      5 C4         14.9961    14.5871    67.4622 C.ar       1          -0.1803
      6 C5         16.3173    14.5649    67.1285 C.ar       1          -0.0200
      7 C6         16.6862    14.9851    65.8336 C.ar       1          -0.1372
      8 C7         18.0276    14.9863    65.4265 C.ar       1          -0.0449
      9 C8         18.3497    15.4053    64.1478 C.ar       1          -0.0300
     10 C9         17.3440    15.8264    63.2630 C.ar       1          -0.0653
     11 C10        16.0396    15.8319    63.6412 C.ar       1          -0.1055
     12 C11        15.6783    15.4116    64.9340 C.ar       1           0.1796
     13 N1         14.3970    15.4058    65.3191 N.ar       1          -0.5415
     14 C12        19.7658    15.4102    63.7093 C.2        1           0.1783
     15 N2         20.4560    16.4544    63.3154 N.2        1          -0.2778
     16 N3         21.7532    16.0552    62.9833 N.pl3      1          -0.3798
     17 C13        21.8822    14.7274    63.1731 C.2        1           0.4163
     18 N4         23.0200    13.9788    62.9513 N.pl3      1          -0.8446
     19 C14        20.6609    14.2491    63.6401 C.2        1          -0.3651
     20 C15        20.3338    12.8632    63.9892 C.2        1           0.6122
     21 N5         19.0975    12.5523    64.4270 N.am       1          -0.8478
     22 O2         21.1784    11.9935    63.8834 O.2        1          -0.5413
     23 C16        22.8126    16.9454    62.5019 C.3        1           0.1781
     24 C17        22.2779    18.3766    62.4198 C.3        1          -0.1405
     25 C18        23.9971    16.8981    63.4692 C.3        1          -0.1652
     26 C19        23.2690    16.4909    61.1142 C.3        1          -0.1670
     27 H1         10.6288    14.6224    64.2966 H          1           0.0653
     28 H2         12.1930    13.8171    64.5669 H          1           0.0653
     29 H3         10.8505    13.5588    65.7065 H          1           0.0803
     30 H4         12.2953    16.2047    65.2281 H          1           0.0680
     31 H5         10.9529    15.9464    66.3680 H          1           0.0682
     32 H6         14.6813    14.2719    68.4460 H          1           0.1466
     33 H7         17.0625    14.2347    67.8371 H          1           0.1494
     34 H8         18.8030    14.6633    66.1052 H          1           0.1369
     35 H9         17.6114    16.1506    62.2681 H          1           0.1398
     36 H10        15.2786    16.1596    62.9483 H          1           0.1386
     37 H11        23.8275    14.4080    62.6278 H          1           0.4038
     38 H12        23.0124    13.0234    63.1188 H          1           0.4169
     39 H13        18.4244    13.2455    64.5112 H          1           0.4017
     40 H14        18.8812    11.6354    64.6579 H          1           0.4008
     41 H15        23.0660    19.0388    62.0617 H          1           0.0705
     42 H16        21.4341    18.4101    61.7306 H          1           0.0734
     43 H17        21.9526    18.7002    63.4085 H          1           0.0710
     44 H18        24.7852    17.5605    63.1110 H          1           0.0605
     45 H19        23.6718    17.2221    64.4579 H          1           0.0845
     46 H20        24.3779    15.8786    63.5279 H          1           0.0701
     47 H21        24.0571    17.1532    60.7560 H          1           0.0707
     48 H22        23.6500    15.4714    61.1726 H          1           0.0845
     49 H23        22.4252    16.5245    60.4250 H          1           0.0608
@<TRIPOS>BOND
     1    1    2 1
     2    1   27 1
     3    1   28 1
     4    1   29 1
     5    2    3 1
     6    2   30 1
     7    2   31 1
     8    3    4 1
     9    4   13 ar
    10    4    5 ar
    11    5    6 ar
    12    5   32 1
    13    6    7 ar
    14    6   33 1
    15    7   12 ar
    16    7    8 ar
    17    8    9 ar
    18    8   34 1
    19    9   10 ar
    20    9   14 1
    21   10   11 ar
    22   10   35 1
    23   11   12 ar
    24   11   36 1
    25   12   13 ar
    26   14   19 1
    27   14   15 2
    28   15   16 1
    29   16   17 1
    30   16   23 1
    31   17   18 1
    32   17   19 2
    33   18   37 1
    34   18   38 1
    35   19   20 1
    36   20   21 am
    37   20   22 2
    38   21   39 1
    39   21   40 1
    40   23   24 1
    41   23   25 1
    42   23   26 1
    43   24   41 1
    44   24   42 1
    45   24   43 1
    46   25   44 1
    47   25   45 1
    48   25   46 1
    49   26   47 1
    50   26   48 1
    51   26   49 1
##########                 Name:                 1597
##########          Protonation:                  100
##########               SMILES:   CCOc1ccc2cc(ccc2n1)c3c(c(n(n3)C(C)(C)C)N)C(=O)N
##########            Long Name:   5-amino-1-tert-butyl-3-(2-ethoxy-6-quinolyl)pyrazole-4-carboxamide
##########          FlexRecCode: 1
##########               Number:                   73
##########   Ligand Source File: /raid1/people/rgc/Examples/tdt/part3/ligand22set/build/ligand22set-0000001.db2.g
##########           GlobalRank: 20
##########                 Rank:                    4
##########               Setnum:                   63
##########             Matchnum:                47097
##########                Cloud:                    1
##########        Electrostatic:            -6.019574
##########        Van der Waals:           -25.863531
##########  Ligand Polar Desolv:             3.875842
########## Ligand Apolar Desolv:            -1.057722
##########      Internal Energy:             0.000000
##########      Receptor Energy: 0.0
########## Receptor Desolvation:             0.000000
########## Receptor Hydrophobic:             0.000000
##########         Total Energy: -29.06
##########        Ligand Charge:             0.000000
##########            Arbitrary:    +999.9990
##########     heavy atom count:   26
##########           pose count:   10
##########        Ligand Energy:             0.000000
# num electro vdwattr vdwrepu polsolv apolsol rdesolv rhydroe totalscore fullpol fullapo
#   1   -1.46   -1.62    0.27    0.01   -0.14    0.00    0.00      -2.93    0.02   -0.21
#   2    0.98   -1.51    0.33   -0.12   -0.07    0.00    0.00      -0.39   -0.19   -0.12
#   3   -2.93   -1.43    0.16    0.83    0.50    0.00    0.00      -2.87    1.42    0.86
#   4    2.81   -1.69    0.33   -0.82   -0.35    0.00    0.00       0.28   -1.57   -0.66
#   5   -0.72   -1.70    0.32    0.12   -0.27    0.00    0.00      -2.25    0.20   -0.46
#   6   -0.02   -1.78    0.61    0.00   -0.22    0.00    0.00      -1.42   -0.01   -0.46
#   7    0.07   -1.42    0.27    0.20   -0.17    0.00    0.00      -1.04    0.48   -0.40
#   8    0.18   -1.16    0.13    0.02   -0.16    0.00    0.00      -0.99    0.06   -0.45
#   9    0.22   -1.16    0.16    0.08   -0.14    0.00    0.00      -0.84    0.23   -0.40
#  10    0.51   -1.45    0.16    0.17   -0.17    0.00    0.00      -0.78    0.41   -0.42
#  11    0.32   -2.08    0.65    0.35   -0.21    0.00    0.00      -0.98    0.76   -0.46
#  12    0.43   -1.78    0.47   -0.39   -0.33    0.00    0.00      -1.60   -0.88   -0.73
#  13   -5.65   -2.49    1.23    1.83    1.33    0.00    0.00      -3.75    3.86    2.80
#  14   -1.49   -1.12    0.37   -0.19   -0.19    0.00    0.00      -2.62   -0.76   -0.77
#  15    1.63   -0.80    0.17    0.25    0.22    0.00    0.00       1.46    1.25    1.08
#  16    1.20   -0.47    0.04    0.08    0.14    0.00    0.00       0.99    0.55    0.94
#  17   -1.53   -0.49    0.04   -0.10   -0.33    0.00    0.00      -2.41   -0.61   -1.98
#  18    0.98   -0.32    0.01   -0.25    0.11    0.00    0.00       0.51   -2.00    0.83
#  19    2.68   -0.86    0.13    0.39   -0.10    0.00    0.00       2.25    1.64   -0.42
#  20   -5.14   -1.20    0.21   -0.76   -0.15    0.00    0.00      -7.04   -2.73   -0.53
#  21   13.25   -1.13    0.17    0.00    0.61    0.00    0.00      12.89   -0.01    1.96
#  22    1.59   -3.25    2.33    1.80    0.13    0.00    0.00       2.59    5.62    0.41
#  23   -0.09   -0.17    0.00    0.04   -0.01    0.00    0.00      -0.23    0.33   -0.12
#  24    0.04   -0.21    0.00   -0.03   -0.02    0.00    0.00      -0.21   -0.22   -0.16
#  25    0.01   -0.20    0.00   -0.09   -0.02    0.00    0.00      -0.30   -0.73   -0.17
#  26   -0.22   -0.14    0.00   -0.05   -0.02    0.00    0.00      -0.42   -0.52   -0.17
#  27    0.85   -0.70    0.47    0.01   -0.15    0.00    0.00       0.48    0.01   -0.28
#  28    0.51   -0.66    0.41    0.00   -0.12    0.00    0.00       0.14    0.00   -0.28
#  29    0.32   -0.59    0.11    0.11   -0.16    0.00    0.00      -0.22    0.18   -0.28
#  30    1.50   -0.56    0.23   -0.11   -0.14    0.00    0.00       0.93   -0.22   -0.28
#  31    1.06   -0.94    1.09   -0.11   -0.14    0.00    0.00       0.96   -0.22   -0.28
#  32    0.57   -0.36    0.04    0.20   -0.15    0.00    0.00       0.29    0.36   -0.28
#  33   -0.17   -0.36    0.07    0.39   -0.11    0.00    0.00      -0.18    1.02   -0.28
#  34   -0.57   -0.18    0.01    0.00   -0.06    0.00    0.00      -0.80    0.00   -0.28
#  35   -1.56   -0.36    0.07   -0.28   -0.06    0.00    0.00      -2.19   -0.94   -0.21
#  36   -0.56   -0.86    0.85   -0.36   -0.12    0.00    0.00      -1.06   -0.83   -0.28
#  37    0.08    0.00    0.00    0.10    0.01    0.00    0.00       0.19    2.14    0.32
#  38   -0.44    0.00    0.00    0.07    0.03    0.00    0.00      -0.34    1.23    0.58
#  39   -8.30   -0.02    0.00    0.22    0.12    0.00    0.00      -7.98    1.04    0.59
#  40   -7.25   -0.03    0.00    0.12    0.15    0.00    0.00      -7.01    0.49    0.60
#  41    0.05   -0.04    0.00    0.00   -0.01    0.00    0.00      -0.01    0.03   -0.28
#  42   -0.05   -0.07    0.00    0.03   -0.02    0.00    0.00      -0.10    0.50   -0.28
#  43   -0.05   -0.10    0.00   -0.01   -0.03    0.00    0.00      -0.17   -0.05   -0.28
#  44    0.05   -0.04    0.00    0.02   -0.01    0.00    0.00       0.02    0.42   -0.20
#  45   -0.03   -0.10    0.00    0.10   -0.03    0.00    0.00      -0.06    0.85   -0.28
#  46    0.00   -0.05    0.00    0.01   -0.01    0.00    0.00      -0.06    0.17   -0.28
#  47    0.10   -0.02    0.00    0.00   -0.01    0.00    0.00       0.07    0.00   -0.28
#  48    0.14   -0.04    0.00    0.03   -0.01    0.00    0.00       0.12    0.74   -0.28
#  49    0.08   -0.07    0.01    0.02   -0.02    0.00    0.00       0.02    0.29   -0.20

@<TRIPOS>MOLECULE
             1597       100
   49    51     0     0     0



@<TRIPOS>ATOM
      1 C1         17.1624    15.0966    66.0434 C.3        1          -0.1546
      2 C2         18.1172    15.8435    65.1098 C.3        1           0.0653
      3 O1         18.8455    14.9012    64.3201 O.3        1          -0.3060
      4 C3         20.0936    15.2592    63.9303 C.ar       1           0.3570
      5 C4         21.0600    14.2646    63.7357 C.ar       1          -0.1803
      6 C5         22.3190    14.6090    63.3435 C.ar       1          -0.0200
      7 C6         22.6063    15.9756    63.1452 C.ar       1          -0.1372
      8 C7         23.8808    16.3972    62.7414 C.ar       1          -0.0449
      9 C8         24.1238    17.7467    62.5570 C.ar       1          -0.0300
     10 C9         23.1047    18.6886    62.7715 C.ar       1          -0.0653
     11 C10        21.8645    18.2975    63.1632 C.ar       1          -0.1055
     12 C11        21.5843    16.9331    63.3591 C.ar       1           0.1796
     13 N1         20.3658    16.5319    63.7391 N.ar       1          -0.5415
     14 C12        25.4688    18.2012    62.1306 C.2        1           0.1783
     15 N2         26.5090    17.4385    61.8892 N.2        1          -0.2778
     16 N3         27.5922    18.2362    61.5116 N.pl3      1          -0.3798
     17 C13        27.2245    19.5325    61.5154 C.2        1           0.4163
     18 N4         28.0272    20.6087    61.1967 N.pl3      1          -0.8446
     19 C14        25.8854    19.5884    61.8929 C.2        1          -0.3651
     20 C15        25.0587    20.7916    62.0291 C.2        1           0.6122
     21 N5         24.3566    21.2498    60.9740 N.am       1          -0.8478
     22 O2         25.0066    21.3764    63.0952 O.2        1          -0.5413
     23 C16        28.9257    17.7387    61.1642 C.3        1           0.1781
     24 C17        28.9467    16.2131    61.2791 C.3        1          -0.1405
     25 C18        29.2643    18.1467    59.7291 C.3        1          -0.1652
     26 C19        29.9585    18.3366    62.1217 C.3        1          -0.1670
     27 H1         16.6069    15.8154    66.6458 H          1           0.0653
     28 H2         16.4657    14.5032    65.4515 H          1           0.0653
     29 H3         17.7346    14.4392    66.6980 H          1           0.0803
     30 H4         17.5450    16.5010    64.4553 H          1           0.0680
     31 H5         18.8140    16.4369    65.7018 H          1           0.0682
     32 H6         20.8083    13.2267    63.8963 H          1           0.1466
     33 H7         23.0770    13.8554    63.1889 H          1           0.1494
     34 H8         24.6664    15.6748    62.5762 H          1           0.1369
     35 H9         23.3100    19.7385    62.6234 H          1           0.1398
     36 H10        21.0922    19.0352    63.3245 H          1           0.1386
     37 H11        28.9515    20.4651    60.9396 H          1           0.4038
     38 H12        27.6673    21.5088    61.2297 H          1           0.4169
     39 H13        24.3981    20.7836    60.1244 H          1           0.4017
     40 H14        23.8097    22.0458    61.0643 H          1           0.4008
     41 H15        29.9388    15.8429    61.0206 H          1           0.0705
     42 H16        28.7056    15.9225    62.3016 H          1           0.0734
     43 H17        28.2108    15.7873    60.5973 H          1           0.0710
     44 H18        30.2563    17.7766    59.4706 H          1           0.0605
     45 H19        28.5284    17.7206    59.0470 H          1           0.0845
     46 H20        29.2491    19.2335    59.6471 H          1           0.0701
     47 H21        30.9506    17.9665    61.8631 H          1           0.0707
     48 H22        29.9436    19.4234    62.0397 H          1           0.0845
     49 H23        29.7173    18.0459    63.1441 H          1           0.0608
@<TRIPOS>BOND
     1    1    2 1
     2    1   27 1
     3    1   28 1
     4    1   29 1
     5    2    3 1
     6    2   30 1
     7    2   31 1
     8    3    4 1
     9    4   13 ar
    10    4    5 ar
    11    5    6 ar
    12    5   32 1
    13    6    7 ar
    14    6   33 1
    15    7   12 ar
    16    7    8 ar
    17    8    9 ar
    18    8   34 1
    19    9   10 ar
    20    9   14 1
    21   10   11 ar
    22   10   35 1
    23   11   12 ar
    24   11   36 1
    25   12   13 ar
    26   14   19 1
    27   14   15 2
    28   15   16 1
    29   16   17 1
    30   16   23 1
    31   17   18 1
    32   17   19 2
    33   18   37 1
    34   18   38 1
    35   19   20 1
    36   20   21 am
    37   20   22 2
    38   21   39 1
    39   21   40 1
    40   23   24 1
    41   23   25 1
    42   23   26 1
    43   24   41 1
    44   24   42 1
    45   24   43 1
    46   25   44 1
    47   25   45 1
    48   25   46 1
    49   26   47 1
    50   26   48 1
    51   26   49 1
##########                 Name:                 1597
##########          Protonation:                  100
##########               SMILES:   CCOc1ccc2cc(ccc2n1)c3c(c(n(n3)C(C)(C)C)N)C(=O)N
##########            Long Name:   5-amino-1-tert-butyl-3-(2-ethoxy-6-quinolyl)pyrazole-4-carboxamide
##########          FlexRecCode: 1
##########               Number:                   73
##########   Ligand Source File: /raid1/people/rgc/Examples/tdt/part3/ligand22set/build/ligand22set-0000001.db2.g
##########           GlobalRank: 20
##########                 Rank:                    5
##########               Setnum:                    4
##########             Matchnum:                 4654
##########                Cloud:                    1
##########        Electrostatic:            -6.724661
##########        Van der Waals:           -27.856451
##########  Ligand Polar Desolv:             6.877133
########## Ligand Apolar Desolv:            -0.769650
##########      Internal Energy:             0.000000
##########      Receptor Energy: 0.0
########## Receptor Desolvation:             0.000000
########## Receptor Hydrophobic:             0.000000
##########         Total Energy: -28.47
##########        Ligand Charge:             0.000000
##########            Arbitrary:    +999.9990
##########     heavy atom count:   26
##########           pose count:   10
##########        Ligand Energy:             0.000000
# num electro vdwattr vdwrepu polsolv apolsol rdesolv rhydroe totalscore fullpol fullapo
#   1   -1.26   -1.66    0.58    0.01   -0.14    0.00    0.00      -2.47    0.02   -0.21
#   2    0.65   -1.49    0.52   -0.12   -0.08    0.00    0.00      -0.52   -0.19   -0.12
#   3   -2.71   -2.20    0.61    0.92    0.56    0.00    0.00      -2.83    1.42    0.86
#   4    3.40   -2.85    1.25   -1.01   -0.42    0.00    0.00       0.37   -1.57   -0.66
#   5   -0.73   -3.42    1.02    0.13   -0.31    0.00    0.00      -3.30    0.20   -0.46
#   6   -0.12   -3.10    0.79   -0.01   -0.30    0.00    0.00      -2.74   -0.01   -0.46
#   7   -1.44   -2.09    0.36    0.29   -0.24    0.00    0.00      -3.12    0.48   -0.40
#   8   -0.41   -2.29    1.09    0.03   -0.25    0.00    0.00      -1.83    0.06   -0.45
#   9   -0.27   -1.66    0.27    0.12   -0.20    0.00    0.00      -1.74    0.23   -0.40
#  10   -0.71   -2.67    1.19    0.22   -0.22    0.00    0.00      -2.20    0.41   -0.42
#  11   -1.46   -3.31    1.74    0.44   -0.27    0.00    0.00      -2.85    0.76   -0.46
#  12    2.53   -2.33    0.64   -0.53   -0.44    0.00    0.00      -0.13   -0.88   -0.73
#  13   -7.17   -2.80    1.32    2.33    1.69    0.00    0.00      -4.62    3.86    2.80
#  14    0.52   -1.70    0.73   -0.33   -0.34    0.00    0.00      -1.12   -0.76   -0.77
#  15    0.29   -1.37    0.27    0.52    0.45    0.00    0.00       0.17    1.25    1.08
#  16    1.60   -1.24    0.30    0.20    0.34    0.00    0.00       1.20    0.55    0.94
#  17   -1.17   -1.76    1.03   -0.25   -0.82    0.00    0.00      -2.97   -0.61   -1.98
#  18    4.34   -1.71    0.48   -0.86    0.36    0.00    0.00       2.60   -2.00    0.83
#  19   -0.20   -2.17    1.92    0.78   -0.20    0.00    0.00       0.14    1.64   -0.42
#  20    1.71   -2.66    0.80   -1.63   -0.32    0.00    0.00      -2.09   -2.73   -0.53
#  21   -3.14   -5.33    4.10   -0.01    1.27    0.00    0.00      -3.11   -0.01    1.96
#  22   -2.67   -3.50    1.63    3.42    0.25    0.00    0.00      -0.87    5.62    0.41
#  23   -1.40   -0.57    0.04    0.10   -0.04    0.00    0.00      -1.86    0.33   -0.12
#  24    1.61   -0.59    0.03   -0.08   -0.06    0.00    0.00       0.91   -0.22   -0.16
#  25    1.21   -1.37    1.27   -0.20   -0.05    0.00    0.00       0.87   -0.73   -0.17
#  26    1.57   -0.85    0.19   -0.18   -0.06    0.00    0.00       0.67   -0.52   -0.17
#  27    0.46   -0.48    0.16    0.01   -0.14    0.00    0.00       0.01    0.01   -0.28
#  28    0.47   -0.55    0.20    0.00   -0.14    0.00    0.00      -0.02    0.00   -0.28
#  29    0.72   -0.98    1.57    0.10   -0.16    0.00    0.00       1.26    0.18   -0.28
#  30    0.68   -0.88    2.37   -0.10   -0.12    0.00    0.00       1.96   -0.22   -0.28
#  31    0.79   -0.48    0.13   -0.11   -0.14    0.00    0.00       0.19   -0.22   -0.28
#  32   -0.25   -0.99    0.40    0.23   -0.18    0.00    0.00      -0.78    0.36   -0.28
#  33    0.67   -1.11    1.02    0.63   -0.17    0.00    0.00       1.03    1.02   -0.28
#  34    1.04   -0.88    1.56    0.00   -0.12    0.00    0.00       1.60    0.00   -0.28
#  35    0.67   -0.73    0.58   -0.44   -0.10    0.00    0.00      -0.03   -0.94   -0.21
#  36    1.41   -1.27    1.91   -0.50   -0.17    0.00    0.00       1.38   -0.83   -0.28
#  37   -1.80   -0.01    0.00    0.53    0.08    0.00    0.00      -1.20    2.14    0.32
#  38   -3.90   -0.07    0.01    0.45    0.21    0.00    0.00      -3.29    1.23    0.58
#  39    0.59   -0.13    0.03    0.65    0.37    0.00    0.00       1.50    1.04    0.59
#  40    3.33   -0.19    0.04    0.32    0.39    0.00    0.00       3.89    0.49    0.60
#  41   -0.92   -0.14    0.00    0.00   -0.03    0.00    0.00      -1.08    0.03   -0.28
#  42   -1.10   -0.17    0.01    0.10   -0.06    0.00    0.00      -1.22    0.50   -0.28
#  43   -0.61   -0.26    0.02   -0.01   -0.08    0.00    0.00      -0.95   -0.05   -0.28
#  44   -0.46   -0.31    0.22    0.07   -0.03    0.00    0.00      -0.52    0.42   -0.20
#  45   -0.72   -1.54    6.05    0.28   -0.09    0.00    0.00       3.98    0.85   -0.28
#  46   -0.35   -0.25    0.06    0.03   -0.05    0.00    0.00      -0.56    0.17   -0.28
#  47   -0.72   -0.18    0.01    0.00   -0.06    0.00    0.00      -0.94    0.00   -0.28
#  48   -0.49   -0.25    0.04    0.20   -0.08    0.00    0.00      -0.58    0.74   -0.28
#  49   -0.79   -0.62    0.71    0.10   -0.07    0.00    0.00      -0.67    0.29   -0.20

@<TRIPOS>MOLECULE
             1597       100
   49    51     0     0     0



@<TRIPOS>ATOM
      1 C1         11.9027    15.3017    65.8292 C.3        1          -0.1546
      2 C2         13.3185    15.4008    65.2576 C.3        1           0.0653
      3 O1         14.2626    14.9963    66.2509 O.3        1          -0.3060
      4 C3         15.5726    15.0259    65.9031 C.ar       1           0.3570
      5 C4         16.5370    14.6334    66.8396 C.ar       1          -0.1803
      6 C5         17.8578    14.6575    66.5044 C.ar       1          -0.0200
      7 C6         18.2099    15.0834    65.2068 C.ar       1          -0.1372
      8 C7         19.5500    15.1311    64.7981 C.ar       1          -0.0449
      9 C8         19.8554    15.5542    63.5167 C.ar       1          -0.0300
     10 C9         18.8342    15.9334    62.6307 C.ar       1          -0.0653
     11 C10        17.5308    15.8937    63.0104 C.ar       1          -0.1055
     12 C11        17.1863    15.4678    64.3059 C.ar       1           0.1796
     13 N1         15.9064    15.4176    64.6926 N.ar       1          -0.5415
     14 C12        21.2699    15.6081    63.0765 C.2        1           0.1783
     15 N2         21.9213    16.6745    62.6759 N.2        1          -0.2778
     16 N3         23.2319    16.3209    62.3446 N.pl3      1          -0.3798
     17 C13        23.4093    14.9997    62.5417 C.2        1           0.4163
     18 N4         24.5733    14.2918    62.3228 N.pl3      1          -0.8446
     19 C14        22.2066    14.4799    63.0129 C.2        1          -0.3651
     20 C15        21.9305    13.0851    63.3702 C.2        1           0.6122
     21 N5         21.4700    12.2289    62.4367 N.am       1          -0.8478
     22 O2         22.1171    12.7003    64.5096 O.2        1          -0.5413
     23 C16        24.2577    17.2462    61.8569 C.3        1           0.1781
     24 C17        23.6713    18.6565    61.7673 C.3        1          -0.1405
     25 C18        25.4441    17.2476    62.8231 C.3        1          -0.1652
     26 C19        24.7290    16.8008    60.4712 C.3        1          -0.1670
     27 H1         11.1825    15.6103    65.0715 H          1           0.0653
     28 H2         11.7012    14.2720    66.1241 H          1           0.0653
     29 H3         11.8158    15.9524    66.6993 H          1           0.0803
     30 H4         13.4052    14.7502    64.3873 H          1           0.0680
     31 H5         13.5199    16.4307    64.9627 H          1           0.0682
     32 H6         16.2347    14.3126    67.8255 H          1           0.1466
     33 H7         18.6152    14.3586    67.2140 H          1           0.1494
     34 H8         20.3372    14.8404    65.4778 H          1           0.1369
     35 H9         19.0887    16.2615    61.6337 H          1           0.1398
     36 H10        16.7577    16.1895    62.3165 H          1           0.1386
     37 H11        25.3644    14.7482    61.9959 H          1           0.4038
     38 H12        24.6006    13.3377    62.4957 H          1           0.4169
     39 H13        21.3212    12.5355    61.5286 H          1           0.4017
     40 H14        21.2873    11.3061    62.6731 H          1           0.4008
     41 H15        24.4344    19.3450    61.4046 H          1           0.0705
     42 H16        22.8261    18.6555    61.0790 H          1           0.0734
     43 H17        23.3353    18.9737    62.7546 H          1           0.0710
     44 H18        26.2073    17.9361    62.4602 H          1           0.0605
     45 H19        25.1082    17.5651    63.8103 H          1           0.0845
     46 H20        25.8618    16.2429    62.8871 H          1           0.0701
     47 H21        25.4922    17.4892    60.1084 H          1           0.0707
     48 H22        25.1469    15.7961    60.5350 H          1           0.0845
     49 H23        23.8839    16.7997    59.7828 H          1           0.0608
@<TRIPOS>BOND
     1    1    2 1
     2    1   27 1
     3    1   28 1
     4    1   29 1
     5    2    3 1
     6    2   30 1
     7    2   31 1
     8    3    4 1
     9    4   13 ar
    10    4    5 ar
    11    5    6 ar
    12    5   32 1
    13    6    7 ar
    14    6   33 1
    15    7   12 ar
    16    7    8 ar
    17    8    9 ar
    18    8   34 1
    19    9   10 ar
    20    9   14 1
    21   10   11 ar
    22   10   35 1
    23   11   12 ar
    24   11   36 1
    25   12   13 ar
    26   14   19 1
    27   14   15 2
    28   15   16 1
    29   16   17 1
    30   16   23 1
    31   17   18 1
    32   17   19 2
    33   18   37 1
    34   18   38 1
    35   19   20 1
    36   20   21 am
    37   20   22 2
    38   21   39 1
    39   21   40 1
    40   23   24 1
    41   23   25 1
    42   23   26 1
    43   24   41 1
    44   24   42 1
    45   24   43 1
    46   25   44 1
    47   25   45 1
    48   25   46 1
    49   26   47 1
    50   26   48 1
    51   26   49 1
##########                 Name:                 1553
##########          Protonation:                   87
##########               SMILES:   CC(C)(Cn1c2c(c(n1)c3ccc4cc(ccc4c3)OC5CC5)c(ncn2)N)O
##########            Long Name:   cyclopropoxy)-2-naphthyl]pyrazolo[3,4-d]pyrimidin-1-yl]-2-methyl-propan-2-ol
##########          FlexRecCode: 1
##########               Number:                   34
##########   Ligand Source File: /raid1/people/rgc/Examples/tdt/part3/ligand22set/build/ligand22set-0000001.db2.g
##########           GlobalRank: 11
##########                 Rank:                    1
##########               Setnum:                  163
##########             Matchnum:                43587
##########                Cloud:                    1
##########        Electrostatic:            -6.826756
##########        Van der Waals:           -34.570023
##########  Ligand Polar Desolv:             5.462468
########## Ligand Apolar Desolv:            -4.204906
##########      Internal Energy:             0.000000
##########      Receptor Energy: 0.0
########## Receptor Desolvation:             0.000000
########## Receptor Hydrophobic:             0.000000
##########         Total Energy: -40.14
##########        Ligand Charge:             0.000000
##########            Arbitrary:    +999.9990
##########     heavy atom count:   29
##########           pose count:    7
##########        Ligand Energy:             0.000000
# num electro vdwattr vdwrepu polsolv apolsol rdesolv rhydroe totalscore fullpol fullapo
#   1    2.12   -1.37    0.88   -0.12   -0.06    0.00    0.00       1.45   -0.33   -0.17
#   2   -1.54   -0.59    0.03   -0.04   -0.03    0.00    0.00      -2.16   -0.11   -0.08
#   3    1.97   -0.55    0.05    0.08   -0.05    0.00    0.00       1.51    0.30   -0.17
#   4   10.77   -1.02    0.07    0.85    0.70    0.00    0.00      11.37    1.97    1.61
#   5   -0.87   -0.77    0.06   -0.04   -0.16    0.00    0.00      -1.77   -0.10   -0.42
#   6    1.04   -1.24    0.11    0.68    0.39    0.00    0.00       0.97    1.61    0.92
#   7   -0.70   -2.10    0.84    0.62    0.49    0.00    0.00      -0.86    1.36    1.07
#   8    1.26   -1.87    0.52   -0.35   -0.35    0.00    0.00      -0.78   -0.76   -0.75
#   9   -0.85   -1.65    0.49    0.83   -0.20    0.00    0.00      -1.38    1.80   -0.44
#  10    1.50   -1.92    0.45   -1.01   -1.24    0.00    0.00      -2.22   -1.75   -2.15
#  11   -3.11   -2.17    0.34   -0.06    0.50    0.00    0.00      -4.49   -0.09    0.80
#  12   -0.28   -2.79    0.93    1.20    1.13    0.00    0.00       0.19    2.22    2.08
#  13   -1.23   -2.22    0.86   -0.44   -1.47    0.00    0.00      -4.50   -0.95   -3.16
#  14    1.46   -1.37    0.19    0.98    0.85    0.00    0.00       2.11    2.42    2.09
#  15   -0.43   -1.40    0.27   -0.78   -0.86    0.00    0.00      -3.18   -1.90   -2.10
#  16   -0.56   -2.21    0.86    0.06   -0.20    0.00    0.00      -2.04    0.12   -0.38
#  17   -1.50   -3.68    3.53    0.01   -0.18    0.00    0.00      -1.82    0.02   -0.32
#  18   -1.49   -3.98    2.34   -0.04   -0.27    0.00    0.00      -3.44   -0.07   -0.45
#  19   -0.04   -2.64    0.83    0.02   -0.24    0.00    0.00      -2.07    0.03   -0.40
#  20   -1.93   -3.26    3.00    0.15   -0.27    0.00    0.00      -2.31    0.26   -0.46
#  21    1.38   -3.26    3.50   -0.14   -0.19    0.00    0.00       1.28   -0.22   -0.31
#  22   -2.42   -2.29    0.97    0.48    0.58    0.00    0.00      -2.67    0.76    0.92
#  23   -0.03   -1.46    0.34   -0.01   -0.17    0.00    0.00      -1.35   -0.02   -0.26
#  24   -1.21   -1.53    0.46   -0.18   -0.28    0.00    0.00      -2.74   -0.28   -0.44
#  25   -1.39   -1.60    0.35   -0.16   -0.27    0.00    0.00      -3.07   -0.26   -0.44
#  26   -0.96   -3.38    1.19   -0.01   -0.28    0.00    0.00      -3.43   -0.01   -0.43
#  27   -0.37   -2.87    0.65    0.00   -0.30    0.00    0.00      -2.90    0.00   -0.46
#  28   -1.04   -2.15    0.38    0.10   -0.25    0.00    0.00      -2.96    0.15   -0.40
#  29   -0.59   -2.23    0.67    0.06   -0.26    0.00    0.00      -2.35    0.11   -0.45
#  30   -0.65   -0.76    1.33    0.10   -0.09    0.00    0.00      -0.07    0.32   -0.28
#  31   -1.09   -0.85    1.45    0.11   -0.11    0.00    0.00      -0.48    0.28   -0.28
#  32   -0.60   -0.25    0.05    0.01   -0.07    0.00    0.00      -0.84    0.06   -0.28
#  33   -0.81   -0.13    0.01   -0.02   -0.04    0.00    0.00      -1.00   -0.15   -0.28
#  34   -0.59   -0.11    0.00   -0.01   -0.02    0.00    0.00      -0.73   -0.12   -0.23
#  35   -1.58   -0.43    0.34   -0.01   -0.06    0.00    0.00      -1.74   -0.03   -0.28
#  36  -10.16   -0.03    0.00   -0.13    0.44    0.00    0.00      -9.88   -0.37    1.22
#  37   -0.73   -0.33    0.10    0.01   -0.07    0.00    0.00      -1.02    0.04   -0.28
#  38   -0.84   -0.35    0.05    0.03   -0.10    0.00    0.00      -1.21    0.10   -0.28
#  39    1.94   -0.03    0.00    0.16    0.16    0.00    0.00       2.23    0.33    0.35
#  40    1.16   -0.05    0.00    0.58    0.36    0.00    0.00       2.05    0.95    0.59
#  41   -1.31   -0.60    0.60    0.17   -0.10    0.00    0.00      -1.24    0.46   -0.28
#  42    0.97   -0.93    1.18    0.05   -0.12    0.00    0.00       1.15    0.10   -0.25
#  43    0.87   -1.60    2.34    0.41   -0.18    0.00    0.00       1.83    0.63   -0.28
#  44    1.39   -0.65    0.26   -0.03   -0.14    0.00    0.00       0.83   -0.05   -0.28
#  45    1.36   -0.70    0.69    0.24   -0.11    0.00    0.00       1.49    0.44   -0.20
#  46    0.65   -0.42    0.09    0.01   -0.15    0.00    0.00       0.18    0.02   -0.28
#  47    0.62   -0.94    1.81    0.26   -0.15    0.00    0.00       1.60    0.49   -0.28
#  48    0.89   -0.88    0.44    0.29   -0.16    0.00    0.00       0.59    0.51   -0.28
#  49    1.03   -0.56    0.43    0.02   -0.12    0.00    0.00       0.79    0.04   -0.28
#  50   -0.04   -0.93    0.40    0.28   -0.13    0.00    0.00      -0.41    0.45   -0.20
#  51    0.47   -0.73    0.16    0.27   -0.17    0.00    0.00       0.00    0.44   -0.28
#  52    1.27   -0.79    1.14   -0.10   -0.13    0.00    0.00       1.40   -0.23   -0.28

@<TRIPOS>MOLECULE
             1553        87
   52    56     0     0     0



@<TRIPOS>ATOM
      1 C1         23.5580    17.0383    60.4272 C.3        1          -0.1766
      2 C2         23.6015    18.4214    61.0800 C.3        1           0.1110
      3 C3         24.9103    19.1206    60.7070 C.3        1          -0.1364
      4 O1         22.4965    19.2010    60.6182 O.3        1          -0.5498
      5 C4         23.5191    18.2705    62.6004 C.3        1           0.1130
      6 N1         22.5554    17.2192    62.9351 N.pl3      1          -0.3681
      7 N2         21.1864    17.4151    63.1458 N.2        1          -0.2347
      8 C5         20.6100    16.2702    63.4266 C.2        1           0.1700
      9 C6         21.6494    15.2412    63.4043 C.ar       1          -0.3250
     10 C7         21.6775    13.8528    63.6164 C.ar       1           0.5184
     11 N3         20.5231    13.1607    63.9278 N.pl3      1          -0.8298
     12 N4         22.8425    13.2216    63.5098 N.ar       1          -0.6058
     13 C8         23.9498    13.8786    63.2120 C.ar       1           0.3855
     14 N5         23.9715    15.1768    63.0055 N.ar       1          -0.5713
     15 C9         22.8525    15.8971    63.0840 C.ar       1           0.3871
     16 C10        19.1714    16.0587    63.7132 C.ar       1          -0.0375
     17 C11        18.2116    16.3895    62.7421 C.ar       1          -0.1000
     18 C12        16.8876    16.2052    62.9802 C.ar       1          -0.1052
     19 C13        16.4616    15.6765    64.2127 C.ar       1          -0.0024
     20 C14        15.0981    15.4764    64.4817 C.ar       1          -0.1569
     21 C15        14.7150    14.9609    65.6873 C.ar       1           0.1430
     22 O2         13.3948    14.7679    65.9448 O.3        1          -0.2817
     23 C16        12.4730    15.6539    65.3068 C.3        1          -0.0037
     24 C17        11.0246    15.1825    65.1623 C.3        1          -0.1827
     25 C18        11.9349    15.2448    63.9341 C.3        1          -0.1680
     26 C19        15.6633    14.6289    66.6600 C.ar       1          -0.1884
     27 C20        16.9913    14.8107    66.4313 C.ar       1          -0.0571
     28 C21        17.4215    15.3389    65.2004 C.ar       1          -0.0824
     29 C22        18.7854    15.5319    64.9322 C.ar       1          -0.0484
     30 H1         22.6256    16.5402    60.6929 H          1           0.0701
     31 H2         23.6168    17.1457    59.3441 H          1           0.0633
     32 H3         24.4008    16.4437    60.7796 H          1           0.0726
     33 H4         24.9412    20.1059    61.1721 H          1           0.0637
     34 H5         25.7530    18.5258    61.0592 H          1           0.0632
     35 H6         24.9690    19.2280    59.6239 H          1           0.0721
     36 H7         22.4844    19.3375    59.6609 H          1           0.3792
     37 H8         24.5002    18.0024    62.9925 H          1           0.1015
     38 H9         23.1964    19.2132    63.0421 H          1           0.1043
     39 H10        19.6794    13.6333    64.0022 H          1           0.4140
     40 H11        20.5565    12.2020    64.0718 H          1           0.4103
     41 H12        24.8746    13.3264    63.1353 H          1           0.2036
     42 H13        18.5309    16.7962    61.7939 H          1           0.1333
     43 H14        16.1616    16.4646    62.2240 H          1           0.1372
     44 H15        14.3557    15.7290    63.7391 H          1           0.1380
     45 H16        12.6415    16.7160    65.4851 H          1           0.1261
     46 H17        10.7748    14.1965    65.5541 H          1           0.1050
     47 H18        10.2400    15.9343    65.2459 H          1           0.1065
     48 H19        11.7490    16.0378    63.2097 H          1           0.1087
     49 H20        12.2840    14.2999    63.5179 H          1           0.1054
     50 H21        15.3365    14.2228    67.6059 H          1           0.1358
     51 H22        17.7129    14.5505    67.1914 H          1           0.1356
     52 H23        19.5275    15.2751    65.6737 H          1           0.1344
@<TRIPOS>BOND
     1    1    2 1
     2    1   30 1
     3    1   31 1
     4    1   32 1
     5    2    3 1
     6    2    4 1
     7    2    5 1
     8    3   33 1
     9    3   34 1
    10    3   35 1
    11    4   36 1
    12    5    6 1
    13    5   37 1
    14    5   38 1
    15    6   15 1
    16    6    7 1
    17    7    8 2
    18    8    9 1
    19    8   16 1
    20    9   15 ar
    21    9   10 ar
    22   10   11 1
    23   10   12 ar
    24   11   39 1
    25   11   40 1
    26   12   13 ar
    27   13   14 ar
    28   13   41 1
    29   14   15 ar
    30   16   29 ar
    31   16   17 ar
    32   17   18 ar
    33   17   42 1
    34   18   19 ar
    35   18   43 1
    36   19   28 ar
    37   19   20 ar
    38   20   21 ar
    39   20   44 1
    40   21   22 1
    41   21   26 ar
    42   22   23 1
    43   23   25 1
    44   23   24 1
    45   23   45 1
    46   24   25 1
    47   24   46 1
    48   24   47 1
    49   25   48 1
    50   25   49 1
    51   26   27 ar
    52   26   50 1
    53   27   28 ar
    54   27   51 1
    55   28   29 ar
    56   29   52 1
##########                 Name:                 1553
##########          Protonation:                   87
##########               SMILES:   CC(C)(Cn1c2c(c(n1)c3ccc4cc(ccc4c3)OC5CC5)c(ncn2)N)O
##########            Long Name:   cyclopropoxy)-2-naphthyl]pyrazolo[3,4-d]pyrimidin-1-yl]-2-methyl-propan-2-ol
##########          FlexRecCode: 1
##########               Number:                   36
##########   Ligand Source File: /raid1/people/rgc/Examples/tdt/part3/ligand22set/build/ligand22set-0000001.db2.g
##########           GlobalRank: 13
##########                 Rank:                    1
##########               Setnum:                  265
##########             Matchnum:                 3257
##########                Cloud:                    1
##########        Electrostatic:            -9.996826
##########        Van der Waals:           -28.650991
##########  Ligand Polar Desolv:             5.354918
########## Ligand Apolar Desolv:            -4.781737
##########      Internal Energy:             0.000000
##########      Receptor Energy: 0.0
########## Receptor Desolvation:             0.000000
########## Receptor Hydrophobic:             0.000000
##########         Total Energy: -38.07
##########        Ligand Charge:             0.000000
##########            Arbitrary:    +999.9990
##########     heavy atom count:   29
##########           pose count:    7
##########        Ligand Energy:             0.000000
# num electro vdwattr vdwrepu polsolv apolsol rdesolv rhydroe totalscore fullpol fullapo
#   1    2.68   -0.58    0.03   -0.11   -0.06    0.00    0.00       1.95   -0.33   -0.17
#   2   -1.17   -0.65    0.05   -0.04   -0.03    0.00    0.00      -1.85   -0.11   -0.08
#   3    1.82   -0.94    0.11    0.14   -0.08    0.00    0.00       1.05    0.30   -0.17
#   4    4.78   -1.49    0.74    0.68    0.56    0.00    0.00       5.27    1.97    1.61
#   5   -0.51   -0.94    0.10   -0.04   -0.18    0.00    0.00      -1.58   -0.10   -0.42
#   6   -0.70   -1.76    0.40    0.72    0.41    0.00    0.00      -0.93    1.61    0.92
#   7   -2.83   -3.56    4.10    0.64    0.50    0.00    0.00      -1.15    1.36    1.07
#   8    1.94   -2.13    0.75   -0.38   -0.38    0.00    0.00      -0.20   -0.76   -0.75
#   9   -1.78   -1.84    0.53    0.95   -0.23    0.00    0.00      -2.38    1.80   -0.44
#  10    2.34   -2.35    0.86   -1.06   -1.30    0.00    0.00      -1.52   -1.75   -2.15
#  11   -2.21   -3.58    3.16   -0.06    0.50    0.00    0.00      -2.19   -0.09    0.80
#  12   -2.60   -3.39    1.69    1.32    1.24    0.00    0.00      -1.74    2.22    2.08
#  13    0.39   -3.12    2.67   -0.49   -1.64    0.00    0.00      -2.19   -0.95   -3.16
#  14   -0.25   -1.97    0.58    1.10    0.95    0.00    0.00       0.42    2.42    2.09
#  15    0.91   -1.75    0.43   -0.85   -0.94    0.00    0.00      -2.20   -1.90   -2.10
#  16   -0.55   -2.01    0.40    0.07   -0.22    0.00    0.00      -2.32    0.12   -0.38
#  17   -1.46   -3.07    1.27    0.01   -0.19    0.00    0.00      -3.43    0.02   -0.32
#  18   -1.34   -3.69    1.73   -0.04   -0.27    0.00    0.00      -3.60   -0.07   -0.45
#  19   -0.03   -3.29    3.08    0.02   -0.24    0.00    0.00      -0.47    0.03   -0.40
#  20   -1.66   -4.09   10.19    0.16   -0.28    0.00    0.00       4.33    0.26   -0.46
#  21    1.16   -3.28    2.47   -0.14   -0.20    0.00    0.00       0.02   -0.22   -0.31
#  22   -2.17   -2.65    0.96    0.48    0.58    0.00    0.00      -2.81    0.76    0.92
#  23   -0.03   -1.66    0.66   -0.01   -0.17    0.00    0.00      -1.21   -0.02   -0.26
#  24   -1.04   -1.43    0.31   -0.18   -0.28    0.00    0.00      -2.62   -0.28   -0.44
#  25   -0.94   -1.88    0.78   -0.16   -0.27    0.00    0.00      -2.47   -0.26   -0.44
#  26   -0.75   -4.16    1.97   -0.01   -0.28    0.00    0.00      -3.23   -0.01   -0.43
#  27   -0.23   -3.54    1.11    0.00   -0.31    0.00    0.00      -2.97    0.00   -0.46
#  28   -0.86   -2.53    0.68    0.10   -0.26    0.00    0.00      -2.87    0.15   -0.40
#  29   -0.56   -2.18    0.36    0.07   -0.28    0.00    0.00      -2.59    0.11   -0.45
#  30   -0.77   -0.13    0.00    0.04   -0.03    0.00    0.00      -0.89    0.32   -0.28
#  31   -1.39   -0.29    0.07    0.07   -0.07    0.00    0.00      -1.60    0.28   -0.28
#  32   -1.21   -0.21    0.02    0.01   -0.06    0.00    0.00      -1.45    0.06   -0.28
#  33   -0.43   -0.33    0.06   -0.05   -0.10    0.00    0.00      -0.85   -0.15   -0.28
#  34   -0.95   -0.30    0.04   -0.04   -0.07    0.00    0.00      -1.32   -0.12   -0.23
#  35   -1.48   -0.40    0.08   -0.01   -0.11    0.00    0.00      -1.93   -0.03   -0.28
#  36   -4.41   -0.05    0.00   -0.12    0.40    0.00    0.00      -4.18   -0.37    1.22
#  37   -0.44   -0.35    0.05    0.01   -0.09    0.00    0.00      -0.81    0.04   -0.28
#  38   -0.58   -0.43    0.07    0.04   -0.11    0.00    0.00      -1.01    0.10   -0.28
#  39    1.58   -0.04    0.00    0.15    0.16    0.00    0.00       1.85    0.33    0.35
#  40   -0.52   -0.09    0.01    0.57    0.36    0.00    0.00       0.32    0.95    0.59
#  41   -0.28   -0.67    0.37    0.20   -0.12    0.00    0.00      -0.50    0.46   -0.28
#  42    1.43   -1.00    1.42    0.05   -0.13    0.00    0.00       1.77    0.10   -0.25
#  43    1.15   -1.27    1.10    0.39   -0.17    0.00    0.00       1.20    0.63   -0.28
#  44    1.43   -0.61    0.51   -0.02   -0.13    0.00    0.00       1.19   -0.05   -0.28
#  45    1.01   -0.97    2.68    0.19   -0.09    0.00    0.00       2.82    0.44   -0.20
#  46    0.68   -0.84    1.15    0.01   -0.15    0.00    0.00       0.86    0.02   -0.28
#  47    0.40   -0.50    0.13    0.24   -0.14    0.00    0.00       0.12    0.49   -0.28
#  48    0.55   -0.69    0.48    0.28   -0.15    0.00    0.00       0.47    0.51   -0.28
#  49    0.58   -0.83    0.69    0.02   -0.16    0.00    0.00       0.31    0.04   -0.28
#  50    0.03   -1.66    2.34    0.30   -0.13    0.00    0.00       0.87    0.45   -0.20
#  51    0.06   -0.96    0.35    0.28   -0.18    0.00    0.00      -0.44    0.44   -0.28
#  52    1.20   -0.59    0.23   -0.12   -0.15    0.00    0.00       0.58   -0.23   -0.28

@<TRIPOS>MOLECULE
             1553        87
   52    56     0     0     0



@<TRIPOS>ATOM
      1 C1         23.8261    19.0742    61.1102 C.3        1          -0.1766
      2 C2         22.8415    17.9799    61.5275 C.3        1           0.1110
      3 C3         21.4767    18.2524    60.8919 C.3        1          -0.1364
      4 O1         23.3267    16.7097    61.0879 O.3        1          -0.5498
      5 C4         22.7024    17.9732    63.0512 C.3        1           0.1130
      6 N1         21.7596    16.9256    63.4508 N.pl3      1          -0.3681
      7 N2         20.3776    17.0921    63.5900 N.2        1          -0.2347
      8 C5         19.8269    15.9598    63.9595 C.2        1           0.1700
      9 C6         20.8985    14.9711    64.0766 C.ar       1          -0.3250
     10 C7         20.9619    13.6113    64.4242 C.ar       1           0.5184
     11 N3         19.8184    12.9119    64.7582 N.pl3      1          -0.8298
     12 N4         22.1497    13.0146    64.4233 N.ar       1          -0.6058
     13 C8         23.2468    13.6787    64.1042 C.ar       1           0.3855
     14 N5         23.2357    14.9510    63.7730 N.ar       1          -0.5713
     15 C9         22.0922    15.6354    63.7390 C.ar       1           0.3871
     16 C10        18.3853    15.7259    64.2115 C.ar       1          -0.0375
     17 C11        17.4557    15.9274    63.1776 C.ar       1          -0.1000
     18 C12        16.1297    15.7200    63.3829 C.ar       1          -0.1052
     19 C13        15.6709    15.2977    64.6442 C.ar       1          -0.0024
     20 C14        14.3046    15.0761    64.8804 C.ar       1          -0.1569
     21 C15        13.8894    14.6659    66.1155 C.ar       1           0.1430
     22 O2         12.5666    14.4519    66.3411 O.3        1          -0.2817
     23 C16        11.7794    14.0247    65.2279 C.3        1          -0.0037
     24 C17        10.7441    15.0069    64.6762 C.3        1          -0.1827
     25 C18        10.2883    13.7803    65.4692 C.3        1          -0.1680
     26 C19        14.8075    14.4630    67.1507 C.ar       1          -0.1884
     27 C20        16.1372    14.6690    66.9551 C.ar       1          -0.0571
     28 C21        16.6002    15.0911    65.6954 C.ar       1          -0.0824
     29 C22        17.9670    15.3057    65.4608 C.ar       1          -0.0484
     30 H1         24.7984    18.8801    61.5630 H          1           0.0701
     31 H2         23.9252    19.0791    60.0248 H          1           0.0633
     32 H3         23.4561    20.0430    61.4456 H          1           0.0726
     33 H4         20.7752    17.4728    61.1892 H          1           0.0637
     34 H5         21.1067    19.2212    61.2271 H          1           0.0632
     35 H6         21.5759    18.2572    59.8063 H          1           0.0721
     36 H7         23.4395    16.6418    60.1299 H          1           0.3792
     37 H8         23.6746    17.7792    63.5041 H          1           0.1015
     38 H9         22.3321    18.9421    63.3864 H          1           0.1043
     39 H10        18.9578    13.3593    64.7547 H          1           0.4140
     40 H11        19.8761    11.9734    64.9963 H          1           0.4103
     41 H12        24.1911    13.1549    64.1164 H          1           0.2036
     42 H13        17.8002    16.2519    62.2068 H          1           0.1333
     43 H14        15.4271    15.8795    62.5784 H          1           0.1372
     44 H15        13.5854    15.2296    64.0895 H          1           0.1380
     45 H16        12.2869    13.3749    64.5148 H          1           0.1261
     46 H17        10.6635    15.9791    65.1627 H          1           0.1050
     47 H18        10.5705    15.0037    63.6001 H          1           0.1065
     48 H19         9.8150    12.9700    64.9147 H          1           0.1087
     49 H20         9.9081    13.9454    66.4771 H          1           0.1054
     50 H21        14.4556    14.1385    68.1188 H          1           0.1358
     51 H22        16.8353    14.5090    67.7635 H          1           0.1356
     52 H23        18.6861    15.1480    66.2510 H          1           0.1344
@<TRIPOS>BOND
     1    1    2 1
     2    1   30 1
     3    1   31 1
     4    1   32 1
     5    2    3 1
     6    2    4 1
     7    2    5 1
     8    3   33 1
     9    3   34 1
    10    3   35 1
    11    4   36 1
    12    5    6 1
    13    5   37 1
    14    5   38 1
    15    6   15 1
    16    6    7 1
    17    7    8 2
    18    8    9 1
    19    8   16 1
    20    9   15 ar
    21    9   10 ar
    22   10   11 1
    23   10   12 ar
    24   11   39 1
    25   11   40 1
    26   12   13 ar
    27   13   14 ar
    28   13   41 1
    29   14   15 ar
    30   16   29 ar
    31   16   17 ar
    32   17   18 ar
    33   17   42 1
    34   18   19 ar
    35   18   43 1
    36   19   28 ar
    37   19   20 ar
    38   20   21 ar
    39   20   44 1
    40   21   22 1
    41   21   26 ar
    42   22   23 1
    43   23   25 1
    44   23   24 1
    45   23   45 1
    46   24   25 1
    47   24   46 1
    48   24   47 1
    49   25   48 1
    50   25   49 1
    51   26   27 ar
    52   26   50 1
    53   27   28 ar
    54   27   51 1
    55   28   29 ar
    56   29   52 1
##########                 Name:                 1553
##########          Protonation:                   87
##########               SMILES:   CC(C)(Cn1c2c(c(n1)c3ccc4cc(ccc4c3)OC5CC5)c(ncn2)N)O
##########            Long Name:   cyclopropoxy)-2-naphthyl]pyrazolo[3,4-d]pyrimidin-1-yl]-2-methyl-propan-2-ol
##########          FlexRecCode: 1
##########               Number:                   34
##########   Ligand Source File: /raid1/people/rgc/Examples/tdt/part3/ligand22set/build/ligand22set-0000001.db2.g
##########           GlobalRank: 13
##########                 Rank:                    2
##########               Setnum:                  165
##########             Matchnum:                43587
##########                Cloud:                    1
##########        Electrostatic:            -4.562695
##########        Van der Waals:           -34.559685
##########  Ligand Polar Desolv:             5.487699
########## Ligand Apolar Desolv:            -4.288096
##########      Internal Energy:             0.000000
##########      Receptor Energy: 0.0
########## Receptor Desolvation:             0.000000
########## Receptor Hydrophobic:             0.000000
##########         Total Energy: -37.92
##########        Ligand Charge:             0.000000
##########            Arbitrary:    +999.9990
##########     heavy atom count:   29
##########           pose count:    7
##########        Ligand Energy:             0.000000
# num electro vdwattr vdwrepu polsolv apolsol rdesolv rhydroe totalscore fullpol fullapo
#   1    2.12   -1.37    0.88   -0.12   -0.06    0.00    0.00       1.45   -0.33   -0.17
#   2   -1.54   -0.59    0.03   -0.04   -0.03    0.00    0.00      -2.16   -0.11   -0.08
#   3    1.97   -0.55    0.05    0.08   -0.05    0.00    0.00       1.51    0.30   -0.17
#   4   10.77   -1.02    0.07    0.85    0.70    0.00    0.00      11.37    1.97    1.61
#   5   -0.87   -0.77    0.06   -0.04   -0.16    0.00    0.00      -1.77   -0.10   -0.42
#   6    1.04   -1.24    0.11    0.68    0.39    0.00    0.00       0.97    1.61    0.92
#   7   -0.70   -2.10    0.84    0.62    0.49    0.00    0.00      -0.86    1.36    1.07
#   8    1.26   -1.87    0.52   -0.35   -0.35    0.00    0.00      -0.78   -0.76   -0.75
#   9   -0.85   -1.65    0.49    0.83   -0.20    0.00    0.00      -1.38    1.80   -0.44
#  10    1.50   -1.92    0.45   -1.01   -1.24    0.00    0.00      -2.22   -1.75   -2.15
#  11   -3.11   -2.17    0.34   -0.06    0.50    0.00    0.00      -4.49   -0.09    0.80
#  12   -0.28   -2.79    0.93    1.20    1.13    0.00    0.00       0.19    2.22    2.08
#  13   -1.23   -2.22    0.86   -0.44   -1.47    0.00    0.00      -4.50   -0.95   -3.16
#  14    1.46   -1.37    0.19    0.98    0.85    0.00    0.00       2.11    2.42    2.09
#  15   -0.43   -1.40    0.27   -0.78   -0.86    0.00    0.00      -3.18   -1.90   -2.10
#  16   -0.56   -2.21    0.86    0.06   -0.20    0.00    0.00      -2.04    0.12   -0.38
#  17   -1.50   -3.68    3.53    0.01   -0.18    0.00    0.00      -1.82    0.02   -0.32
#  18   -1.49   -3.98    2.34   -0.04   -0.27    0.00    0.00      -3.44   -0.07   -0.45
#  19   -0.04   -2.64    0.83    0.02   -0.24    0.00    0.00      -2.07    0.03   -0.40
#  20   -1.93   -3.26    3.00    0.15   -0.27    0.00    0.00      -2.31    0.26   -0.46
#  21    1.38   -3.26    3.50   -0.14   -0.19    0.00    0.00       1.28   -0.22   -0.31
#  22   -2.42   -2.29    0.97    0.48    0.58    0.00    0.00      -2.67    0.76    0.92
#  23   -0.03   -1.46    0.34   -0.01   -0.17    0.00    0.00      -1.35   -0.02   -0.26
#  24   -1.21   -1.53    0.46   -0.18   -0.28    0.00    0.00      -2.74   -0.28   -0.44
#  25   -1.39   -1.60    0.35   -0.16   -0.27    0.00    0.00      -3.07   -0.26   -0.44
#  26   -0.96   -3.38    1.19   -0.01   -0.28    0.00    0.00      -3.43   -0.01   -0.43
#  27   -0.37   -2.87    0.65    0.00   -0.30    0.00    0.00      -2.90    0.00   -0.46
#  28   -1.04   -2.15    0.38    0.10   -0.25    0.00    0.00      -2.96    0.15   -0.40
#  29   -0.59   -2.23    0.67    0.06   -0.26    0.00    0.00      -2.35    0.11   -0.45
#  30   -0.65   -0.76    1.33    0.10   -0.09    0.00    0.00      -0.07    0.32   -0.28
#  31   -1.09   -0.85    1.45    0.11   -0.11    0.00    0.00      -0.48    0.28   -0.28
#  32   -0.60   -0.25    0.05    0.01   -0.07    0.00    0.00      -0.84    0.06   -0.28
#  33   -0.81   -0.13    0.01   -0.02   -0.04    0.00    0.00      -1.00   -0.15   -0.28
#  34   -0.59   -0.11    0.00   -0.01   -0.02    0.00    0.00      -0.73   -0.12   -0.23
#  35   -1.58   -0.43    0.34   -0.01   -0.06    0.00    0.00      -1.74   -0.03   -0.28
#  36   -7.89   -0.02    0.00   -0.11    0.36    0.00    0.00      -7.66   -0.37    1.22
#  37   -0.73   -0.33    0.10    0.01   -0.07    0.00    0.00      -1.02    0.04   -0.28
#  38   -0.84   -0.35    0.05    0.03   -0.10    0.00    0.00      -1.21    0.10   -0.28
#  39    1.94   -0.03    0.00    0.16    0.16    0.00    0.00       2.23    0.33    0.35
#  40    1.16   -0.05    0.00    0.58    0.36    0.00    0.00       2.05    0.95    0.59
#  41   -1.31   -0.60    0.60    0.17   -0.10    0.00    0.00      -1.24    0.46   -0.28
#  42    0.97   -0.93    1.18    0.05   -0.12    0.00    0.00       1.15    0.10   -0.25
#  43    0.87   -1.60    2.34    0.41   -0.18    0.00    0.00       1.83    0.63   -0.28
#  44    1.39   -0.65    0.26   -0.03   -0.14    0.00    0.00       0.83   -0.05   -0.28
#  45    1.36   -0.70    0.69    0.24   -0.11    0.00    0.00       1.49    0.44   -0.20
#  46    0.65   -0.42    0.09    0.01   -0.15    0.00    0.00       0.18    0.02   -0.28
#  47    0.62   -0.94    1.81    0.26   -0.15    0.00    0.00       1.60    0.49   -0.28
#  48    0.89   -0.88    0.44    0.29   -0.16    0.00    0.00       0.59    0.51   -0.28
#  49    1.03   -0.56    0.43    0.02   -0.12    0.00    0.00       0.79    0.04   -0.28
#  50   -0.04   -0.93    0.40    0.28   -0.13    0.00    0.00      -0.41    0.45   -0.20
#  51    0.47   -0.73    0.16    0.27   -0.17    0.00    0.00       0.00    0.44   -0.28
#  52    1.27   -0.79    1.14   -0.10   -0.13    0.00    0.00       1.40   -0.23   -0.28

@<TRIPOS>MOLECULE
             1553        87
   52    56     0     0     0



@<TRIPOS>ATOM
      1 C1         23.5580    17.0383    60.4272 C.3        1          -0.1766
      2 C2         23.6015    18.4214    61.0800 C.3        1           0.1110
      3 C3         24.9103    19.1206    60.7070 C.3        1          -0.1364
      4 O1         22.4965    19.2010    60.6182 O.3        1          -0.5498
      5 C4         23.5191    18.2705    62.6004 C.3        1           0.1130
      6 N1         22.5554    17.2192    62.9351 N.pl3      1          -0.3681
      7 N2         21.1864    17.4151    63.1458 N.2        1          -0.2347
      8 C5         20.6100    16.2702    63.4266 C.2        1           0.1700
      9 C6         21.6494    15.2412    63.4043 C.ar       1          -0.3250
     10 C7         21.6775    13.8528    63.6164 C.ar       1           0.5184
     11 N3         20.5231    13.1607    63.9278 N.pl3      1          -0.8298
     12 N4         22.8425    13.2216    63.5098 N.ar       1          -0.6058
     13 C8         23.9498    13.8786    63.2120 C.ar       1           0.3855
     14 N5         23.9715    15.1768    63.0055 N.ar       1          -0.5713
     15 C9         22.8525    15.8971    63.0840 C.ar       1           0.3871
     16 C10        19.1714    16.0587    63.7132 C.ar       1          -0.0375
     17 C11        18.2116    16.3895    62.7421 C.ar       1          -0.1000
     18 C12        16.8876    16.2052    62.9802 C.ar       1          -0.1052
     19 C13        16.4616    15.6765    64.2127 C.ar       1          -0.0024
     20 C14        15.0981    15.4764    64.4817 C.ar       1          -0.1569
     21 C15        14.7150    14.9609    65.6873 C.ar       1           0.1430
     22 O2         13.3948    14.7679    65.9448 O.3        1          -0.2817
     23 C16        12.4730    15.6539    65.3068 C.3        1          -0.0037
     24 C17        11.0246    15.1825    65.1623 C.3        1          -0.1827
     25 C18        11.9349    15.2448    63.9341 C.3        1          -0.1680
     26 C19        15.6633    14.6289    66.6600 C.ar       1          -0.1884
     27 C20        16.9913    14.8107    66.4313 C.ar       1          -0.0571
     28 C21        17.4215    15.3389    65.2004 C.ar       1          -0.0824
     29 C22        18.7854    15.5319    64.9322 C.ar       1          -0.0484
     30 H1         22.6256    16.5402    60.6929 H          1           0.0701
     31 H2         23.6168    17.1457    59.3441 H          1           0.0633
     32 H3         24.4008    16.4437    60.7796 H          1           0.0726
     33 H4         24.9412    20.1059    61.1721 H          1           0.0637
     34 H5         25.7530    18.5258    61.0592 H          1           0.0632
     35 H6         24.9690    19.2280    59.6239 H          1           0.0721
     36 H7         22.4606    20.0922    60.9918 H          1           0.3792
     37 H8         24.5002    18.0024    62.9925 H          1           0.1015
     38 H9         23.1964    19.2132    63.0421 H          1           0.1043
     39 H10        19.6794    13.6333    64.0022 H          1           0.4140
     40 H11        20.5565    12.2020    64.0718 H          1           0.4103
     41 H12        24.8746    13.3264    63.1353 H          1           0.2036
     42 H13        18.5309    16.7962    61.7939 H          1           0.1333
     43 H14        16.1616    16.4646    62.2240 H          1           0.1372
     44 H15        14.3557    15.7290    63.7391 H          1           0.1380
     45 H16        12.6415    16.7160    65.4851 H          1           0.1261
     46 H17        10.7748    14.1965    65.5541 H          1           0.1050
     47 H18        10.2400    15.9343    65.2459 H          1           0.1065
     48 H19        11.7490    16.0378    63.2097 H          1           0.1087
     49 H20        12.2840    14.2999    63.5179 H          1           0.1054
     50 H21        15.3365    14.2228    67.6059 H          1           0.1358
     51 H22        17.7129    14.5505    67.1914 H          1           0.1356
     52 H23        19.5275    15.2751    65.6737 H          1           0.1344
@<TRIPOS>BOND
     1    1    2 1
     2    1   30 1
     3    1   31 1
     4    1   32 1
     5    2    3 1
     6    2    4 1
     7    2    5 1
     8    3   33 1
     9    3   34 1
    10    3   35 1
    11    4   36 1
    12    5    6 1
    13    5   37 1
    14    5   38 1
    15    6   15 1
    16    6    7 1
    17    7    8 2
    18    8    9 1
    19    8   16 1
    20    9   15 ar
    21    9   10 ar
    22   10   11 1
    23   10   12 ar
    24   11   39 1
    25   11   40 1
    26   12   13 ar
    27   13   14 ar
    28   13   41 1
    29   14   15 ar
    30   16   29 ar
    31   16   17 ar
    32   17   18 ar
    33   17   42 1
    34   18   19 ar
    35   18   43 1
    36   19   28 ar
    37   19   20 ar
    38   20   21 ar
    39   20   44 1
    40   21   22 1
    41   21   26 ar
    42   22   23 1
    43   23   25 1
    44   23   24 1
    45   23   45 1
    46   24   25 1
    47   24   46 1
    48   24   47 1
    49   25   48 1
    50   25   49 1
    51   26   27 ar
    52   26   50 1
    53   27   28 ar
    54   27   51 1
    55   28   29 ar
    56   29   52 1
##########                 Name:                 1553
##########          Protonation:                   87
##########               SMILES:   CC(C)(Cn1c2c(c(n1)c3ccc4cc(ccc4c3)OC5CC5)c(ncn2)N)O
##########            Long Name:   cyclopropoxy)-2-naphthyl]pyrazolo[3,4-d]pyrimidin-1-yl]-2-methyl-propan-2-ol
##########          FlexRecCode: 1
##########               Number:                   36
##########   Ligand Source File: /raid1/people/rgc/Examples/tdt/part3/ligand22set/build/ligand22set-0000001.db2.g
##########           GlobalRank: 15
##########                 Rank:                    2
##########               Setnum:                  266
##########             Matchnum:                 3257
##########                Cloud:                    1
##########        Electrostatic:            -8.270748
##########        Van der Waals:           -28.618086
##########  Ligand Polar Desolv:             5.409990
########## Ligand Apolar Desolv:            -4.963325
##########      Internal Energy:             0.000000
##########      Receptor Energy: 0.0
########## Receptor Desolvation:             0.000000
########## Receptor Hydrophobic:             0.000000
##########         Total Energy: -36.44
##########        Ligand Charge:             0.000000
##########            Arbitrary:    +999.9990
##########     heavy atom count:   29
##########           pose count:    7
##########        Ligand Energy:             0.000000
# num electro vdwattr vdwrepu polsolv apolsol rdesolv rhydroe totalscore fullpol fullapo
#   1    2.68   -0.58    0.03   -0.11   -0.06    0.00    0.00       1.95   -0.33   -0.17
#   2   -1.17   -0.65    0.05   -0.04   -0.03    0.00    0.00      -1.85   -0.11   -0.08
#   3    1.82   -0.94    0.11    0.14   -0.08    0.00    0.00       1.05    0.30   -0.17
#   4    4.78   -1.49    0.74    0.68    0.56    0.00    0.00       5.27    1.97    1.61
#   5   -0.51   -0.94    0.10   -0.04   -0.18    0.00    0.00      -1.58   -0.10   -0.42
#   6   -0.70   -1.76    0.40    0.72    0.41    0.00    0.00      -0.93    1.61    0.92
#   7   -2.83   -3.56    4.10    0.64    0.50    0.00    0.00      -1.15    1.36    1.07
#   8    1.94   -2.13    0.75   -0.38   -0.38    0.00    0.00      -0.20   -0.76   -0.75
#   9   -1.78   -1.84    0.53    0.95   -0.23    0.00    0.00      -2.38    1.80   -0.44
#  10    2.34   -2.35    0.86   -1.06   -1.30    0.00    0.00      -1.52   -1.75   -2.15
#  11   -2.21   -3.58    3.16   -0.06    0.50    0.00    0.00      -2.19   -0.09    0.80
#  12   -2.60   -3.39    1.69    1.32    1.24    0.00    0.00      -1.74    2.22    2.08
#  13    0.39   -3.12    2.67   -0.49   -1.64    0.00    0.00      -2.19   -0.95   -3.16
#  14   -0.25   -1.97    0.58    1.10    0.95    0.00    0.00       0.42    2.42    2.09
#  15    0.91   -1.75    0.43   -0.85   -0.94    0.00    0.00      -2.20   -1.90   -2.10
#  16   -0.55   -2.01    0.40    0.07   -0.22    0.00    0.00      -2.32    0.12   -0.38
#  17   -1.46   -3.07    1.27    0.01   -0.19    0.00    0.00      -3.43    0.02   -0.32
#  18   -1.34   -3.69    1.73   -0.04   -0.27    0.00    0.00      -3.60   -0.07   -0.45
#  19   -0.03   -3.29    3.08    0.02   -0.24    0.00    0.00      -0.47    0.03   -0.40
#  20   -1.66   -4.09   10.19    0.16   -0.28    0.00    0.00       4.33    0.26   -0.46
#  21    1.16   -3.28    2.47   -0.14   -0.20    0.00    0.00       0.02   -0.22   -0.31
#  22   -2.17   -2.65    0.96    0.48    0.58    0.00    0.00      -2.81    0.76    0.92
#  23   -0.03   -1.66    0.66   -0.01   -0.17    0.00    0.00      -1.21   -0.02   -0.26
#  24   -1.04   -1.43    0.31   -0.18   -0.28    0.00    0.00      -2.62   -0.28   -0.44
#  25   -0.94   -1.88    0.78   -0.16   -0.27    0.00    0.00      -2.47   -0.26   -0.44
#  26   -0.75   -4.16    1.97   -0.01   -0.28    0.00    0.00      -3.23   -0.01   -0.43
#  27   -0.23   -3.54    1.11    0.00   -0.31    0.00    0.00      -2.97    0.00   -0.46
#  28   -0.86   -2.53    0.68    0.10   -0.26    0.00    0.00      -2.87    0.15   -0.40
#  29   -0.56   -2.18    0.36    0.07   -0.28    0.00    0.00      -2.59    0.11   -0.45
#  30   -0.77   -0.13    0.00    0.04   -0.03    0.00    0.00      -0.89    0.32   -0.28
#  31   -1.39   -0.29    0.07    0.07   -0.07    0.00    0.00      -1.60    0.28   -0.28
#  32   -1.21   -0.21    0.02    0.01   -0.06    0.00    0.00      -1.45    0.06   -0.28
#  33   -0.43   -0.33    0.06   -0.05   -0.10    0.00    0.00      -0.85   -0.15   -0.28
#  34   -0.95   -0.30    0.04   -0.04   -0.07    0.00    0.00      -1.32   -0.12   -0.23
#  35   -1.48   -0.40    0.08   -0.01   -0.11    0.00    0.00      -1.93   -0.03   -0.28
#  36   -2.69   -0.01    0.00   -0.07    0.22    0.00    0.00      -2.55   -0.37    1.22
#  37   -0.44   -0.35    0.05    0.01   -0.09    0.00    0.00      -0.81    0.04   -0.28
#  38   -0.58   -0.43    0.07    0.04   -0.11    0.00    0.00      -1.01    0.10   -0.28
#  39    1.58   -0.04    0.00    0.15    0.16    0.00    0.00       1.85    0.33    0.35
#  40   -0.52   -0.09    0.01    0.57    0.36    0.00    0.00       0.32    0.95    0.59
#  41   -0.28   -0.67    0.37    0.20   -0.12    0.00    0.00      -0.50    0.46   -0.28
#  42    1.43   -1.00    1.42    0.05   -0.13    0.00    0.00       1.77    0.10   -0.25
#  43    1.15   -1.27    1.10    0.39   -0.17    0.00    0.00       1.20    0.63   -0.28
#  44    1.43   -0.61    0.51   -0.02   -0.13    0.00    0.00       1.19   -0.05   -0.28
#  45    1.01   -0.97    2.68    0.19   -0.09    0.00    0.00       2.82    0.44   -0.20
#  46    0.68   -0.84    1.15    0.01   -0.15    0.00    0.00       0.86    0.02   -0.28
#  47    0.40   -0.50    0.13    0.24   -0.14    0.00    0.00       0.12    0.49   -0.28
#  48    0.55   -0.69    0.48    0.28   -0.15    0.00    0.00       0.47    0.51   -0.28
#  49    0.58   -0.83    0.69    0.02   -0.16    0.00    0.00       0.31    0.04   -0.28
#  50    0.03   -1.66    2.34    0.30   -0.13    0.00    0.00       0.87    0.45   -0.20
#  51    0.06   -0.96    0.35    0.28   -0.18    0.00    0.00      -0.44    0.44   -0.28
#  52    1.20   -0.59    0.23   -0.12   -0.15    0.00    0.00       0.58   -0.23   -0.28

@<TRIPOS>MOLECULE
             1553        87
   52    56     0     0     0



@<TRIPOS>ATOM
      1 C1         23.8261    19.0742    61.1102 C.3        1          -0.1766
      2 C2         22.8415    17.9799    61.5275 C.3        1           0.1110
      3 C3         21.4767    18.2524    60.8919 C.3        1          -0.1364
      4 O1         23.3267    16.7097    61.0879 O.3        1          -0.5498
      5 C4         22.7024    17.9732    63.0512 C.3        1           0.1130
      6 N1         21.7596    16.9256    63.4508 N.pl3      1          -0.3681
      7 N2         20.3776    17.0921    63.5900 N.2        1          -0.2347
      8 C5         19.8269    15.9598    63.9595 C.2        1           0.1700
      9 C6         20.8985    14.9711    64.0766 C.ar       1          -0.3250
     10 C7         20.9619    13.6113    64.4242 C.ar       1           0.5184
     11 N3         19.8184    12.9119    64.7582 N.pl3      1          -0.8298
     12 N4         22.1497    13.0146    64.4233 N.ar       1          -0.6058
     13 C8         23.2468    13.6787    64.1042 C.ar       1           0.3855
     14 N5         23.2357    14.9510    63.7730 N.ar       1          -0.5713
     15 C9         22.0922    15.6354    63.7390 C.ar       1           0.3871
     16 C10        18.3853    15.7259    64.2115 C.ar       1          -0.0375
     17 C11        17.4557    15.9274    63.1776 C.ar       1          -0.1000
     18 C12        16.1297    15.7200    63.3829 C.ar       1          -0.1052
     19 C13        15.6709    15.2977    64.6442 C.ar       1          -0.0024
     20 C14        14.3046    15.0761    64.8804 C.ar       1          -0.1569
     21 C15        13.8894    14.6659    66.1155 C.ar       1           0.1430
     22 O2         12.5666    14.4519    66.3411 O.3        1          -0.2817
     23 C16        11.7794    14.0247    65.2279 C.3        1          -0.0037
     24 C17        10.7441    15.0069    64.6762 C.3        1          -0.1827
     25 C18        10.2883    13.7803    65.4692 C.3        1          -0.1680
     26 C19        14.8075    14.4630    67.1507 C.ar       1          -0.1884
     27 C20        16.1372    14.6690    66.9551 C.ar       1          -0.0571
     28 C21        16.6002    15.0911    65.6954 C.ar       1          -0.0824
     29 C22        17.9670    15.3057    65.4608 C.ar       1          -0.0484
     30 H1         24.7984    18.8801    61.5630 H          1           0.0701
     31 H2         23.9252    19.0791    60.0248 H          1           0.0633
     32 H3         23.4561    20.0430    61.4456 H          1           0.0726
     33 H4         20.7752    17.4728    61.1892 H          1           0.0637
     34 H5         21.1067    19.2212    61.2271 H          1           0.0632
     35 H6         21.5759    18.2572    59.8063 H          1           0.0721
     36 H7         24.1901    16.4709    61.4523 H          1           0.3792
     37 H8         23.6746    17.7792    63.5041 H          1           0.1015
     38 H9         22.3321    18.9421    63.3864 H          1           0.1043
     39 H10        18.9578    13.3593    64.7547 H          1           0.4140
     40 H11        19.8761    11.9734    64.9963 H          1           0.4103
     41 H12        24.1911    13.1549    64.1164 H          1           0.2036
     42 H13        17.8002    16.2519    62.2068 H          1           0.1333
     43 H14        15.4271    15.8795    62.5784 H          1           0.1372
     44 H15        13.5854    15.2296    64.0895 H          1           0.1380
     45 H16        12.2869    13.3749    64.5148 H          1           0.1261
     46 H17        10.6635    15.9791    65.1627 H          1           0.1050
     47 H18        10.5705    15.0037    63.6001 H          1           0.1065
     48 H19         9.8150    12.9700    64.9147 H          1           0.1087
     49 H20         9.9081    13.9454    66.4771 H          1           0.1054
     50 H21        14.4556    14.1385    68.1188 H          1           0.1358
     51 H22        16.8353    14.5090    67.7635 H          1           0.1356
     52 H23        18.6861    15.1480    66.2510 H          1           0.1344
@<TRIPOS>BOND
     1    1    2 1
     2    1   30 1
     3    1   31 1
     4    1   32 1
     5    2    3 1
     6    2    4 1
     7    2    5 1
     8    3   33 1
     9    3   34 1
    10    3   35 1
    11    4   36 1
    12    5    6 1
    13    5   37 1
    14    5   38 1
    15    6   15 1
    16    6    7 1
    17    7    8 2
    18    8    9 1
    19    8   16 1
    20    9   15 ar
    21    9   10 ar
    22   10   11 1
    23   10   12 ar
    24   11   39 1
    25   11   40 1
    26   12   13 ar
    27   13   14 ar
    28   13   41 1
    29   14   15 ar
    30   16   29 ar
    31   16   17 ar
    32   17   18 ar
    33   17   42 1
    34   18   19 ar
    35   18   43 1
    36   19   28 ar
    37   19   20 ar
    38   20   21 ar
    39   20   44 1
    40   21   22 1
    41   21   26 ar
    42   22   23 1
    43   23   25 1
    44   23   24 1
    45   23   45 1
    46   24   25 1
    47   24   46 1
    48   24   47 1
    49   25   48 1
    50   25   49 1
    51   26   27 ar
    52   26   50 1
    53   27   28 ar
    54   27   51 1
    55   28   29 ar
    56   29   52 1
##########                 Name:                 1553
##########          Protonation:                   87
##########               SMILES:   CC(C)(Cn1c2c(c(n1)c3ccc4cc(ccc4c3)OC5CC5)c(ncn2)N)O
##########            Long Name:   cyclopropoxy)-2-naphthyl]pyrazolo[3,4-d]pyrimidin-1-yl]-2-methyl-propan-2-ol
##########          FlexRecCode: 1
##########               Number:                   39
##########   Ligand Source File: /raid1/people/rgc/Examples/tdt/part3/ligand22set/build/ligand22set-0000001.db2.g
##########           GlobalRank: 15
##########                 Rank:                    1
##########               Setnum:                  277
##########             Matchnum:                 3257
##########                Cloud:                    1
##########        Electrostatic:           -10.205829
##########        Van der Waals:           -27.359068
##########  Ligand Polar Desolv:             5.693133
########## Ligand Apolar Desolv:            -4.508308
##########      Internal Energy:             0.000000
##########      Receptor Energy: 0.0
########## Receptor Desolvation:             0.000000
########## Receptor Hydrophobic:             0.000000
##########         Total Energy: -36.38
##########        Ligand Charge:             0.000000
##########            Arbitrary:    +999.9990
##########     heavy atom count:   29
##########           pose count:    7
##########        Ligand Energy:             0.000000
# num electro vdwattr vdwrepu polsolv apolsol rdesolv rhydroe totalscore fullpol fullapo
#   1    2.34   -1.09    0.27   -0.15   -0.08    0.00    0.00       1.30   -0.33   -0.17
#   2   -1.24   -0.82    0.07   -0.05   -0.04    0.00    0.00      -2.07   -0.11   -0.08
#   3    2.30   -0.85    0.13    0.12   -0.07    0.00    0.00       1.62    0.30   -0.17
#   4    5.87   -3.14    3.71    0.95    0.77    0.00    0.00       8.16    1.97    1.61
#   5   -0.51   -0.94    0.10   -0.04   -0.18    0.00    0.00      -1.58   -0.10   -0.42
#   6   -0.70   -1.76    0.40    0.72    0.41    0.00    0.00      -0.93    1.61    0.92
#   7   -2.83   -3.56    4.10    0.64    0.50    0.00    0.00      -1.15    1.36    1.07
#   8    1.94   -2.13    0.75   -0.38   -0.38    0.00    0.00      -0.20   -0.76   -0.75
#   9   -1.78   -1.84    0.53    0.95   -0.23    0.00    0.00      -2.38    1.80   -0.44
#  10    2.34   -2.35    0.86   -1.06   -1.30    0.00    0.00      -1.52   -1.75   -2.15
#  11   -2.21   -3.58    3.16   -0.06    0.50    0.00    0.00      -2.19   -0.09    0.80
#  12   -2.60   -3.39    1.69    1.32    1.24    0.00    0.00      -1.74    2.22    2.08
#  13    0.39   -3.12    2.67   -0.49   -1.64    0.00    0.00      -2.19   -0.95   -3.16
#  14   -0.25   -1.97    0.58    1.10    0.95    0.00    0.00       0.42    2.42    2.09
#  15    0.91   -1.75    0.43   -0.85   -0.94    0.00    0.00      -2.20   -1.90   -2.10
#  16   -0.55   -2.01    0.40    0.07   -0.22    0.00    0.00      -2.32    0.12   -0.38
#  17   -1.46   -3.07    1.27    0.01   -0.19    0.00    0.00      -3.43    0.02   -0.32
#  18   -1.34   -3.69    1.73   -0.04   -0.27    0.00    0.00      -3.60   -0.07   -0.45
#  19   -0.03   -3.29    3.08    0.02   -0.24    0.00    0.00      -0.47    0.03   -0.40
#  20   -1.66   -4.09   10.19    0.16   -0.28    0.00    0.00       4.33    0.26   -0.46
#  21    1.16   -3.28    2.47   -0.14   -0.20    0.00    0.00       0.02   -0.22   -0.31
#  22   -2.17   -2.65    0.96    0.48    0.58    0.00    0.00      -2.81    0.76    0.92
#  23   -0.03   -1.66    0.66   -0.01   -0.17    0.00    0.00      -1.21   -0.02   -0.26
#  24   -1.04   -1.43    0.31   -0.18   -0.28    0.00    0.00      -2.62   -0.28   -0.44
#  25   -0.94   -1.88    0.78   -0.16   -0.27    0.00    0.00      -2.47   -0.26   -0.44
#  26   -0.75   -4.16    1.97   -0.01   -0.28    0.00    0.00      -3.23   -0.01   -0.43
#  27   -0.23   -3.54    1.11    0.00   -0.31    0.00    0.00      -2.97    0.00   -0.46
#  28   -0.86   -2.53    0.68    0.10   -0.26    0.00    0.00      -2.87    0.15   -0.40
#  29   -0.56   -2.18    0.36    0.07   -0.28    0.00    0.00      -2.59    0.11   -0.45
#  30   -0.52   -0.46    0.31    0.11   -0.10    0.00    0.00      -0.66    0.32   -0.28
#  31   -1.30   -0.39    0.07    0.11   -0.11    0.00    0.00      -1.62    0.28   -0.28
#  32   -0.98   -0.37    0.15    0.02   -0.09    0.00    0.00      -1.27    0.06   -0.28
#  33   -1.00   -0.59    0.53   -0.04   -0.08    0.00    0.00      -1.19   -0.15   -0.28
#  34   -0.96   -0.15    0.01   -0.02   -0.03    0.00    0.00      -1.15   -0.12   -0.23
#  35   -1.71   -0.29    0.04   -0.01   -0.09    0.00    0.00      -2.06   -0.03   -0.28
#  36   -5.61   -0.05    0.00   -0.15    0.50    0.00    0.00      -5.31   -0.37    1.22
#  37   -0.59   -0.20    0.01    0.01   -0.06    0.00    0.00      -0.83    0.04   -0.28
#  38   -0.37   -0.51    0.10    0.04   -0.12    0.00    0.00      -0.86    0.10   -0.28
#  39    1.58   -0.04    0.00    0.15    0.16    0.00    0.00       1.85    0.33    0.35
#  40   -0.52   -0.09    0.01    0.57    0.36    0.00    0.00       0.32    0.95    0.59
#  41   -0.28   -0.67    0.37    0.20   -0.12    0.00    0.00      -0.50    0.46   -0.28
#  42    1.43   -1.00    1.42    0.05   -0.13    0.00    0.00       1.77    0.10   -0.25
#  43    1.15   -1.27    1.10    0.39   -0.17    0.00    0.00       1.20    0.63   -0.28
#  44    1.43   -0.61    0.51   -0.02   -0.13    0.00    0.00       1.19   -0.05   -0.28
#  45    1.01   -0.97    2.68    0.19   -0.09    0.00    0.00       2.82    0.44   -0.20
#  46    0.68   -0.84    1.15    0.01   -0.15    0.00    0.00       0.86    0.02   -0.28
#  47    0.40   -0.50    0.13    0.24   -0.14    0.00    0.00       0.12    0.49   -0.28
#  48    0.55   -0.69    0.48    0.28   -0.15    0.00    0.00       0.47    0.51   -0.28
#  49    0.58   -0.83    0.69    0.02   -0.16    0.00    0.00       0.31    0.04   -0.28
#  50    0.03   -1.66    2.34    0.30   -0.13    0.00    0.00       0.87    0.45   -0.20
#  51    0.06   -0.96    0.35    0.28   -0.18    0.00    0.00      -0.44    0.44   -0.28
#  52    1.20   -0.59    0.23   -0.12   -0.15    0.00    0.00       0.58   -0.23   -0.28

@<TRIPOS>MOLECULE
             1553        87
   52    56     0     0     0



@<TRIPOS>ATOM
      1 C1         21.8984    17.7965    60.6921 C.3        1          -0.1766
      2 C2         22.1276    18.7512    61.8656 C.3        1           0.1110
      3 C3         23.1121    19.8455    61.4482 C.3        1          -0.1364
      4 O1         20.8853    19.3472    62.2443 O.3        1          -0.5498
      5 C4         22.7024    17.9732    63.0512 C.3        1           0.1130
      6 N1         21.7596    16.9256    63.4508 N.pl3      1          -0.3681
      7 N2         20.3776    17.0921    63.5900 N.2        1          -0.2347
      8 C5         19.8269    15.9598    63.9595 C.2        1           0.1700
      9 C6         20.8985    14.9711    64.0766 C.ar       1          -0.3250
     10 C7         20.9619    13.6113    64.4242 C.ar       1           0.5184
     11 N3         19.8184    12.9119    64.7582 N.pl3      1          -0.8298
     12 N4         22.1497    13.0146    64.4233 N.ar       1          -0.6058
     13 C8         23.2468    13.6787    64.1042 C.ar       1           0.3855
     14 N5         23.2357    14.9510    63.7730 N.ar       1          -0.5713
     15 C9         22.0922    15.6354    63.7390 C.ar       1           0.3871
     16 C10        18.3853    15.7259    64.2115 C.ar       1          -0.0375
     17 C11        17.4557    15.9274    63.1776 C.ar       1          -0.1000
     18 C12        16.1297    15.7200    63.3829 C.ar       1          -0.1052
     19 C13        15.6709    15.2977    64.6442 C.ar       1          -0.0024
     20 C14        14.3046    15.0761    64.8804 C.ar       1          -0.1569
     21 C15        13.8894    14.6659    66.1155 C.ar       1           0.1430
     22 O2         12.5666    14.4519    66.3411 O.3        1          -0.2817
     23 C16        11.7794    14.0247    65.2279 C.3        1          -0.0037
     24 C17        10.7441    15.0069    64.6762 C.3        1          -0.1827
     25 C18        10.2883    13.7803    65.4692 C.3        1          -0.1680
     26 C19        14.8075    14.4630    67.1507 C.ar       1          -0.1884
     27 C20        16.1372    14.6690    66.9551 C.ar       1          -0.0571
     28 C21        16.6002    15.0911    65.6954 C.ar       1          -0.0824
     29 C22        17.9670    15.3057    65.4608 C.ar       1          -0.0484
     30 H1         21.1971    17.0170    60.9895 H          1           0.0701
     31 H2         21.4892    18.3507    59.8475 H          1           0.0633
     32 H3         22.8461    17.3419    60.4034 H          1           0.0726
     33 H4         23.2754    20.5256    62.2842 H          1           0.0637
     34 H5         24.0596    19.3907    61.1594 H          1           0.0632
     35 H6         22.7027    20.3997    60.6036 H          1           0.0721
     36 H7         20.4629    19.8574    61.5397 H          1           0.3792
     37 H8         23.6499    17.5186    62.7624 H          1           0.1015
     38 H9         22.8655    18.6533    63.8873 H          1           0.1043
     39 H10        18.9578    13.3593    64.7547 H          1           0.4140
     40 H11        19.8761    11.9734    64.9963 H          1           0.4103
     41 H12        24.1911    13.1549    64.1164 H          1           0.2036
     42 H13        17.8002    16.2519    62.2068 H          1           0.1333
     43 H14        15.4271    15.8795    62.5784 H          1           0.1372
     44 H15        13.5854    15.2296    64.0895 H          1           0.1380
     45 H16        12.2869    13.3749    64.5148 H          1           0.1261
     46 H17        10.6635    15.9791    65.1627 H          1           0.1050
     47 H18        10.5705    15.0037    63.6001 H          1           0.1065
     48 H19         9.8150    12.9700    64.9147 H          1           0.1087
     49 H20         9.9081    13.9454    66.4771 H          1           0.1054
     50 H21        14.4556    14.1385    68.1188 H          1           0.1358
     51 H22        16.8353    14.5090    67.7635 H          1           0.1356
     52 H23        18.6861    15.1480    66.2510 H          1           0.1344
@<TRIPOS>BOND
     1    1    2 1
     2    1   30 1
     3    1   31 1
     4    1   32 1
     5    2    3 1
     6    2    4 1
     7    2    5 1
     8    3   33 1
     9    3   34 1
    10    3   35 1
    11    4   36 1
    12    5    6 1
    13    5   37 1
    14    5   38 1
    15    6   15 1
    16    6    7 1
    17    7    8 2
    18    8    9 1
    19    8   16 1
    20    9   15 ar
    21    9   10 ar
    22   10   11 1
    23   10   12 ar
    24   11   39 1
    25   11   40 1
    26   12   13 ar
    27   13   14 ar
    28   13   41 1
    29   14   15 ar
    30   16   29 ar
    31   16   17 ar
    32   17   18 ar
    33   17   42 1
    34   18   19 ar
    35   18   43 1
    36   19   28 ar
    37   19   20 ar
    38   20   21 ar
    39   20   44 1
    40   21   22 1
    41   21   26 ar
    42   22   23 1
    43   23   25 1
    44   23   24 1
    45   23   45 1
    46   24   25 1
    47   24   46 1
    48   24   47 1
    49   25   48 1
    50   25   49 1
    51   26   27 ar
    52   26   50 1
    53   27   28 ar
    54   27   51 1
    55   28   29 ar
    56   29   52 1
##########                 Name:                 1553
##########          Protonation:                   87
##########               SMILES:   CC(C)(Cn1c2c(c(n1)c3ccc4cc(ccc4c3)OC5CC5)c(ncn2)N)O
##########            Long Name:   cyclopropoxy)-2-naphthyl]pyrazolo[3,4-d]pyrimidin-1-yl]-2-methyl-propan-2-ol
##########          FlexRecCode: 1
##########               Number:                   34
##########   Ligand Source File: /raid1/people/rgc/Examples/tdt/part3/ligand22set/build/ligand22set-0000001.db2.g
##########           GlobalRank: 15
##########                 Rank:                    3
##########               Setnum:                  164
##########             Matchnum:                43587
##########                Cloud:                    1
##########        Electrostatic:            -2.866958
##########        Van der Waals:           -34.556923
##########  Ligand Polar Desolv:             5.479356
########## Ligand Apolar Desolv:            -4.260588
##########      Internal Energy:             0.000000
##########      Receptor Energy: 0.0
########## Receptor Desolvation:             0.000000
########## Receptor Hydrophobic:             0.000000
##########         Total Energy: -36.21
##########        Ligand Charge:             0.000000
##########            Arbitrary:    +999.9990
##########     heavy atom count:   29
##########           pose count:    7
##########        Ligand Energy:             0.000000
# num electro vdwattr vdwrepu polsolv apolsol rdesolv rhydroe totalscore fullpol fullapo
#   1    2.12   -1.37    0.88   -0.12   -0.06    0.00    0.00       1.45   -0.33   -0.17
#   2   -1.54   -0.59    0.03   -0.04   -0.03    0.00    0.00      -2.16   -0.11   -0.08
#   3    1.97   -0.55    0.05    0.08   -0.05    0.00    0.00       1.51    0.30   -0.17
#   4   10.77   -1.02    0.07    0.85    0.70    0.00    0.00      11.37    1.97    1.61
#   5   -0.87   -0.77    0.06   -0.04   -0.16    0.00    0.00      -1.77   -0.10   -0.42
#   6    1.04   -1.24    0.11    0.68    0.39    0.00    0.00       0.97    1.61    0.92
#   7   -0.70   -2.10    0.84    0.62    0.49    0.00    0.00      -0.86    1.36    1.07
#   8    1.26   -1.87    0.52   -0.35   -0.35    0.00    0.00      -0.78   -0.76   -0.75
#   9   -0.85   -1.65    0.49    0.83   -0.20    0.00    0.00      -1.38    1.80   -0.44
#  10    1.50   -1.92    0.45   -1.01   -1.24    0.00    0.00      -2.22   -1.75   -2.15
#  11   -3.11   -2.17    0.34   -0.06    0.50    0.00    0.00      -4.49   -0.09    0.80
#  12   -0.28   -2.79    0.93    1.20    1.13    0.00    0.00       0.19    2.22    2.08
#  13   -1.23   -2.22    0.86   -0.44   -1.47    0.00    0.00      -4.50   -0.95   -3.16
#  14    1.46   -1.37    0.19    0.98    0.85    0.00    0.00       2.11    2.42    2.09
#  15   -0.43   -1.40    0.27   -0.78   -0.86    0.00    0.00      -3.18   -1.90   -2.10
#  16   -0.56   -2.21    0.86    0.06   -0.20    0.00    0.00      -2.04    0.12   -0.38
#  17   -1.50   -3.68    3.53    0.01   -0.18    0.00    0.00      -1.82    0.02   -0.32
#  18   -1.49   -3.98    2.34   -0.04   -0.27    0.00    0.00      -3.44   -0.07   -0.45
#  19   -0.04   -2.64    0.83    0.02   -0.24    0.00    0.00      -2.07    0.03   -0.40
#  20   -1.93   -3.26    3.00    0.15   -0.27    0.00    0.00      -2.31    0.26   -0.46
#  21    1.38   -3.26    3.50   -0.14   -0.19    0.00    0.00       1.28   -0.22   -0.31
#  22   -2.42   -2.29    0.97    0.48    0.58    0.00    0.00      -2.67    0.76    0.92
#  23   -0.03   -1.46    0.34   -0.01   -0.17    0.00    0.00      -1.35   -0.02   -0.26
#  24   -1.21   -1.53    0.46   -0.18   -0.28    0.00    0.00      -2.74   -0.28   -0.44
#  25   -1.39   -1.60    0.35   -0.16   -0.27    0.00    0.00      -3.07   -0.26   -0.44
#  26   -0.96   -3.38    1.19   -0.01   -0.28    0.00    0.00      -3.43   -0.01   -0.43
#  27   -0.37   -2.87    0.65    0.00   -0.30    0.00    0.00      -2.90    0.00   -0.46
#  28   -1.04   -2.15    0.38    0.10   -0.25    0.00    0.00      -2.96    0.15   -0.40
#  29   -0.59   -2.23    0.67    0.06   -0.26    0.00    0.00      -2.35    0.11   -0.45
#  30   -0.65   -0.76    1.33    0.10   -0.09    0.00    0.00      -0.07    0.32   -0.28
#  31   -1.09   -0.85    1.45    0.11   -0.11    0.00    0.00      -0.48    0.28   -0.28
#  32   -0.60   -0.25    0.05    0.01   -0.07    0.00    0.00      -0.84    0.06   -0.28
#  33   -0.81   -0.13    0.01   -0.02   -0.04    0.00    0.00      -1.00   -0.15   -0.28
#  34   -0.59   -0.11    0.00   -0.01   -0.02    0.00    0.00      -0.73   -0.12   -0.23
#  35   -1.58   -0.43    0.34   -0.01   -0.06    0.00    0.00      -1.74   -0.03   -0.28
#  36   -6.20   -0.02    0.00   -0.12    0.39    0.00    0.00      -5.95   -0.37    1.22
#  37   -0.73   -0.33    0.10    0.01   -0.07    0.00    0.00      -1.02    0.04   -0.28
#  38   -0.84   -0.35    0.05    0.03   -0.10    0.00    0.00      -1.21    0.10   -0.28
#  39    1.94   -0.03    0.00    0.16    0.16    0.00    0.00       2.23    0.33    0.35
#  40    1.16   -0.05    0.00    0.58    0.36    0.00    0.00       2.05    0.95    0.59
#  41   -1.31   -0.60    0.60    0.17   -0.10    0.00    0.00      -1.24    0.46   -0.28
#  42    0.97   -0.93    1.18    0.05   -0.12    0.00    0.00       1.15    0.10   -0.25
#  43    0.87   -1.60    2.34    0.41   -0.18    0.00    0.00       1.83    0.63   -0.28
#  44    1.39   -0.65    0.26   -0.03   -0.14    0.00    0.00       0.83   -0.05   -0.28
#  45    1.36   -0.70    0.69    0.24   -0.11    0.00    0.00       1.49    0.44   -0.20
#  46    0.65   -0.42    0.09    0.01   -0.15    0.00    0.00       0.18    0.02   -0.28
#  47    0.62   -0.94    1.81    0.26   -0.15    0.00    0.00       1.60    0.49   -0.28
#  48    0.89   -0.88    0.44    0.29   -0.16    0.00    0.00       0.59    0.51   -0.28
#  49    1.03   -0.56    0.43    0.02   -0.12    0.00    0.00       0.79    0.04   -0.28
#  50   -0.04   -0.93    0.40    0.28   -0.13    0.00    0.00      -0.41    0.45   -0.20
#  51    0.47   -0.73    0.16    0.27   -0.17    0.00    0.00       0.00    0.44   -0.28
#  52    1.27   -0.79    1.14   -0.10   -0.13    0.00    0.00       1.40   -0.23   -0.28

@<TRIPOS>MOLECULE
             1553        87
   52    56     0     0     0



@<TRIPOS>ATOM
      1 C1         23.5580    17.0383    60.4272 C.3        1          -0.1766
      2 C2         23.6015    18.4214    61.0800 C.3        1           0.1110
      3 C3         24.9103    19.1206    60.7070 C.3        1          -0.1364
      4 O1         22.4965    19.2010    60.6182 O.3        1          -0.5498
      5 C4         23.5191    18.2705    62.6004 C.3        1           0.1130
      6 N1         22.5554    17.2192    62.9351 N.pl3      1          -0.3681
      7 N2         21.1864    17.4151    63.1458 N.2        1          -0.2347
      8 C5         20.6100    16.2702    63.4266 C.2        1           0.1700
      9 C6         21.6494    15.2412    63.4043 C.ar       1          -0.3250
     10 C7         21.6775    13.8528    63.6164 C.ar       1           0.5184
     11 N3         20.5231    13.1607    63.9278 N.pl3      1          -0.8298
     12 N4         22.8425    13.2216    63.5098 N.ar       1          -0.6058
     13 C8         23.9498    13.8786    63.2120 C.ar       1           0.3855
     14 N5         23.9715    15.1768    63.0055 N.ar       1          -0.5713
     15 C9         22.8525    15.8971    63.0840 C.ar       1           0.3871
     16 C10        19.1714    16.0587    63.7132 C.ar       1          -0.0375
     17 C11        18.2116    16.3895    62.7421 C.ar       1          -0.1000
     18 C12        16.8876    16.2052    62.9802 C.ar       1          -0.1052
     19 C13        16.4616    15.6765    64.2127 C.ar       1          -0.0024
     20 C14        15.0981    15.4764    64.4817 C.ar       1          -0.1569
     21 C15        14.7150    14.9609    65.6873 C.ar       1           0.1430
     22 O2         13.3948    14.7679    65.9448 O.3        1          -0.2817
     23 C16        12.4730    15.6539    65.3068 C.3        1          -0.0037
     24 C17        11.0246    15.1825    65.1623 C.3        1          -0.1827
     25 C18        11.9349    15.2448    63.9341 C.3        1          -0.1680
     26 C19        15.6633    14.6289    66.6600 C.ar       1          -0.1884
     27 C20        16.9913    14.8107    66.4313 C.ar       1          -0.0571
     28 C21        17.4215    15.3389    65.2004 C.ar       1          -0.0824
     29 C22        18.7854    15.5319    64.9322 C.ar       1          -0.0484
     30 H1         22.6256    16.5402    60.6929 H          1           0.0701
     31 H2         23.6168    17.1457    59.3441 H          1           0.0633
     32 H3         24.4008    16.4437    60.7796 H          1           0.0726
     33 H4         24.9412    20.1059    61.1721 H          1           0.0637
     34 H5         25.7530    18.5258    61.0592 H          1           0.0632
     35 H6         24.9690    19.2280    59.6239 H          1           0.0721
     36 H7         21.6324    18.8169    60.8205 H          1           0.3792
     37 H8         24.5002    18.0024    62.9925 H          1           0.1015
     38 H9         23.1964    19.2132    63.0421 H          1           0.1043
     39 H10        19.6794    13.6333    64.0022 H          1           0.4140
     40 H11        20.5565    12.2020    64.0718 H          1           0.4103
     41 H12        24.8746    13.3264    63.1353 H          1           0.2036
     42 H13        18.5309    16.7962    61.7939 H          1           0.1333
     43 H14        16.1616    16.4646    62.2240 H          1           0.1372
     44 H15        14.3557    15.7290    63.7391 H          1           0.1380
     45 H16        12.6415    16.7160    65.4851 H          1           0.1261
     46 H17        10.7748    14.1965    65.5541 H          1           0.1050
     47 H18        10.2400    15.9343    65.2459 H          1           0.1065
     48 H19        11.7490    16.0378    63.2097 H          1           0.1087
     49 H20        12.2840    14.2999    63.5179 H          1           0.1054
     50 H21        15.3365    14.2228    67.6059 H          1           0.1358
     51 H22        17.7129    14.5505    67.1914 H          1           0.1356
     52 H23        19.5275    15.2751    65.6737 H          1           0.1344
@<TRIPOS>BOND
     1    1    2 1
     2    1   30 1
     3    1   31 1
     4    1   32 1
     5    2    3 1
     6    2    4 1
     7    2    5 1
     8    3   33 1
     9    3   34 1
    10    3   35 1
    11    4   36 1
    12    5    6 1
    13    5   37 1
    14    5   38 1
    15    6   15 1
    16    6    7 1
    17    7    8 2
    18    8    9 1
    19    8   16 1
    20    9   15 ar
    21    9   10 ar
    22   10   11 1
    23   10   12 ar
    24   11   39 1
    25   11   40 1
    26   12   13 ar
    27   13   14 ar
    28   13   41 1
    29   14   15 ar
    30   16   29 ar
    31   16   17 ar
    32   17   18 ar
    33   17   42 1
    34   18   19 ar
    35   18   43 1
    36   19   28 ar
    37   19   20 ar
    38   20   21 ar
    39   20   44 1
    40   21   22 1
    41   21   26 ar
    42   22   23 1
    43   23   25 1
    44   23   24 1
    45   23   45 1
    46   24   25 1
    47   24   46 1
    48   24   47 1
    49   25   48 1
    50   25   49 1
    51   26   27 ar
    52   26   50 1
    53   27   28 ar
    54   27   51 1
    55   28   29 ar
    56   29   52 1
##########                 Name:                 1553
##########          Protonation:                   87
##########               SMILES:   CC(C)(Cn1c2c(c(n1)c3ccc4cc(ccc4c3)OC5CC5)c(ncn2)N)O
##########            Long Name:   cyclopropoxy)-2-naphthyl]pyrazolo[3,4-d]pyrimidin-1-yl]-2-methyl-propan-2-ol
##########          FlexRecCode: 1
##########               Number:                   36
##########   Ligand Source File: /raid1/people/rgc/Examples/tdt/part3/ligand22set/build/ligand22set-0000001.db2.g
##########           GlobalRank: 15
##########                 Rank:                    3
##########               Setnum:                  267
##########             Matchnum:                 3257
##########                Cloud:                    1
##########        Electrostatic:            -7.784553
##########        Van der Waals:           -28.654600
##########  Ligand Polar Desolv:             5.371887
########## Ligand Apolar Desolv:            -4.837687
##########      Internal Energy:             0.000000
##########      Receptor Energy: 0.0
########## Receptor Desolvation:             0.000000
########## Receptor Hydrophobic:             0.000000
##########         Total Energy: -35.9
##########        Ligand Charge:             0.000000
##########            Arbitrary:    +999.9990
##########     heavy atom count:   29
##########           pose count:    7
##########        Ligand Energy:             0.000000
# num electro vdwattr vdwrepu polsolv apolsol rdesolv rhydroe totalscore fullpol fullapo
#   1    2.68   -0.58    0.03   -0.11   -0.06    0.00    0.00       1.95   -0.33   -0.17
#   2   -1.17   -0.65    0.05   -0.04   -0.03    0.00    0.00      -1.85   -0.11   -0.08
#   3    1.82   -0.94    0.11    0.14   -0.08    0.00    0.00       1.05    0.30   -0.17
#   4    4.78   -1.49    0.74    0.68    0.56    0.00    0.00       5.27    1.97    1.61
#   5   -0.51   -0.94    0.10   -0.04   -0.18    0.00    0.00      -1.58   -0.10   -0.42
#   6   -0.70   -1.76    0.40    0.72    0.41    0.00    0.00      -0.93    1.61    0.92
#   7   -2.83   -3.56    4.10    0.64    0.50    0.00    0.00      -1.15    1.36    1.07
#   8    1.94   -2.13    0.75   -0.38   -0.38    0.00    0.00      -0.20   -0.76   -0.75
#   9   -1.78   -1.84    0.53    0.95   -0.23    0.00    0.00      -2.38    1.80   -0.44
#  10    2.34   -2.35    0.86   -1.06   -1.30    0.00    0.00      -1.52   -1.75   -2.15
#  11   -2.21   -3.58    3.16   -0.06    0.50    0.00    0.00      -2.19   -0.09    0.80
#  12   -2.60   -3.39    1.69    1.32    1.24    0.00    0.00      -1.74    2.22    2.08
#  13    0.39   -3.12    2.67   -0.49   -1.64    0.00    0.00      -2.19   -0.95   -3.16
#  14   -0.25   -1.97    0.58    1.10    0.95    0.00    0.00       0.42    2.42    2.09
#  15    0.91   -1.75    0.43   -0.85   -0.94    0.00    0.00      -2.20   -1.90   -2.10
#  16   -0.55   -2.01    0.40    0.07   -0.22    0.00    0.00      -2.32    0.12   -0.38
#  17   -1.46   -3.07    1.27    0.01   -0.19    0.00    0.00      -3.43    0.02   -0.32
#  18   -1.34   -3.69    1.73   -0.04   -0.27    0.00    0.00      -3.60   -0.07   -0.45
#  19   -0.03   -3.29    3.08    0.02   -0.24    0.00    0.00      -0.47    0.03   -0.40
#  20   -1.66   -4.09   10.19    0.16   -0.28    0.00    0.00       4.33    0.26   -0.46
#  21    1.16   -3.28    2.47   -0.14   -0.20    0.00    0.00       0.02   -0.22   -0.31
#  22   -2.17   -2.65    0.96    0.48    0.58    0.00    0.00      -2.81    0.76    0.92
#  23   -0.03   -1.66    0.66   -0.01   -0.17    0.00    0.00      -1.21   -0.02   -0.26
#  24   -1.04   -1.43    0.31   -0.18   -0.28    0.00    0.00      -2.62   -0.28   -0.44
#  25   -0.94   -1.88    0.78   -0.16   -0.27    0.00    0.00      -2.47   -0.26   -0.44
#  26   -0.75   -4.16    1.97   -0.01   -0.28    0.00    0.00      -3.23   -0.01   -0.43
#  27   -0.23   -3.54    1.11    0.00   -0.31    0.00    0.00      -2.97    0.00   -0.46
#  28   -0.86   -2.53    0.68    0.10   -0.26    0.00    0.00      -2.87    0.15   -0.40
#  29   -0.56   -2.18    0.36    0.07   -0.28    0.00    0.00      -2.59    0.11   -0.45
#  30   -0.77   -0.13    0.00    0.04   -0.03    0.00    0.00      -0.89    0.32   -0.28
#  31   -1.39   -0.29    0.07    0.07   -0.07    0.00    0.00      -1.60    0.28   -0.28
#  32   -1.21   -0.21    0.02    0.01   -0.06    0.00    0.00      -1.45    0.06   -0.28
#  33   -0.43   -0.33    0.06   -0.05   -0.10    0.00    0.00      -0.85   -0.15   -0.28
#  34   -0.95   -0.30    0.04   -0.04   -0.07    0.00    0.00      -1.32   -0.12   -0.23
#  35   -1.48   -0.40    0.08   -0.01   -0.11    0.00    0.00      -1.93   -0.03   -0.28
#  36   -2.20   -0.06    0.01   -0.11    0.35    0.00    0.00      -2.01   -0.37    1.22
#  37   -0.44   -0.35    0.05    0.01   -0.09    0.00    0.00      -0.81    0.04   -0.28
#  38   -0.58   -0.43    0.07    0.04   -0.11    0.00    0.00      -1.01    0.10   -0.28
#  39    1.58   -0.04    0.00    0.15    0.16    0.00    0.00       1.85    0.33    0.35
#  40   -0.52   -0.09    0.01    0.57    0.36    0.00    0.00       0.32    0.95    0.59
#  41   -0.28   -0.67    0.37    0.20   -0.12    0.00    0.00      -0.50    0.46   -0.28
#  42    1.43   -1.00    1.42    0.05   -0.13    0.00    0.00       1.77    0.10   -0.25
#  43    1.15   -1.27    1.10    0.39   -0.17    0.00    0.00       1.20    0.63   -0.28
#  44    1.43   -0.61    0.51   -0.02   -0.13    0.00    0.00       1.19   -0.05   -0.28
#  45    1.01   -0.97    2.68    0.19   -0.09    0.00    0.00       2.82    0.44   -0.20
#  46    0.68   -0.84    1.15    0.01   -0.15    0.00    0.00       0.86    0.02   -0.28
#  47    0.40   -0.50    0.13    0.24   -0.14    0.00    0.00       0.12    0.49   -0.28
#  48    0.55   -0.69    0.48    0.28   -0.15    0.00    0.00       0.47    0.51   -0.28
#  49    0.58   -0.83    0.69    0.02   -0.16    0.00    0.00       0.31    0.04   -0.28
#  50    0.03   -1.66    2.34    0.30   -0.13    0.00    0.00       0.87    0.45   -0.20
#  51    0.06   -0.96    0.35    0.28   -0.18    0.00    0.00      -0.44    0.44   -0.28
#  52    1.20   -0.59    0.23   -0.12   -0.15    0.00    0.00       0.58   -0.23   -0.28

@<TRIPOS>MOLECULE
             1553        87
   52    56     0     0     0



@<TRIPOS>ATOM
      1 C1         23.8261    19.0742    61.1102 C.3        1          -0.1766
      2 C2         22.8415    17.9799    61.5275 C.3        1           0.1110
      3 C3         21.4767    18.2524    60.8919 C.3        1          -0.1364
      4 O1         23.3267    16.7097    61.0879 O.3        1          -0.5498
      5 C4         22.7024    17.9732    63.0512 C.3        1           0.1130
      6 N1         21.7596    16.9256    63.4508 N.pl3      1          -0.3681
      7 N2         20.3776    17.0921    63.5900 N.2        1          -0.2347
      8 C5         19.8269    15.9598    63.9595 C.2        1           0.1700
      9 C6         20.8985    14.9711    64.0766 C.ar       1          -0.3250
     10 C7         20.9619    13.6113    64.4242 C.ar       1           0.5184
     11 N3         19.8184    12.9119    64.7582 N.pl3      1          -0.8298
     12 N4         22.1497    13.0146    64.4233 N.ar       1          -0.6058
     13 C8         23.2468    13.6787    64.1042 C.ar       1           0.3855
     14 N5         23.2357    14.9510    63.7730 N.ar       1          -0.5713
     15 C9         22.0922    15.6354    63.7390 C.ar       1           0.3871
     16 C10        18.3853    15.7259    64.2115 C.ar       1          -0.0375
     17 C11        17.4557    15.9274    63.1776 C.ar       1          -0.1000
     18 C12        16.1297    15.7200    63.3829 C.ar       1          -0.1052
     19 C13        15.6709    15.2977    64.6442 C.ar       1          -0.0024
     20 C14        14.3046    15.0761    64.8804 C.ar       1          -0.1569
     21 C15        13.8894    14.6659    66.1155 C.ar       1           0.1430
     22 O2         12.5666    14.4519    66.3411 O.3        1          -0.2817
     23 C16        11.7794    14.0247    65.2279 C.3        1          -0.0037
     24 C17        10.7441    15.0069    64.6762 C.3        1          -0.1827
     25 C18        10.2883    13.7803    65.4692 C.3        1          -0.1680
     26 C19        14.8075    14.4630    67.1507 C.ar       1          -0.1884
     27 C20        16.1372    14.6690    66.9551 C.ar       1          -0.0571
     28 C21        16.6002    15.0911    65.6954 C.ar       1          -0.0824
     29 C22        17.9670    15.3057    65.4608 C.ar       1          -0.0484
     30 H1         24.7984    18.8801    61.5630 H          1           0.0701
     31 H2         23.9252    19.0791    60.0248 H          1           0.0633
     32 H3         23.4561    20.0430    61.4456 H          1           0.0726
     33 H4         20.7752    17.4728    61.1892 H          1           0.0637
     34 H5         21.1067    19.2212    61.2271 H          1           0.0632
     35 H6         21.5759    18.2572    59.8063 H          1           0.0721
     36 H7         22.7512    15.9675    61.3187 H          1           0.3792
     37 H8         23.6746    17.7792    63.5041 H          1           0.1015
     38 H9         22.3321    18.9421    63.3864 H          1           0.1043
     39 H10        18.9578    13.3593    64.7547 H          1           0.4140
     40 H11        19.8761    11.9734    64.9963 H          1           0.4103
     41 H12        24.1911    13.1549    64.1164 H          1           0.2036
     42 H13        17.8002    16.2519    62.2068 H          1           0.1333
     43 H14        15.4271    15.8795    62.5784 H          1           0.1372
     44 H15        13.5854    15.2296    64.0895 H          1           0.1380
     45 H16        12.2869    13.3749    64.5148 H          1           0.1261
     46 H17        10.6635    15.9791    65.1627 H          1           0.1050
     47 H18        10.5705    15.0037    63.6001 H          1           0.1065
     48 H19         9.8150    12.9700    64.9147 H          1           0.1087
     49 H20         9.9081    13.9454    66.4771 H          1           0.1054
     50 H21        14.4556    14.1385    68.1188 H          1           0.1358
     51 H22        16.8353    14.5090    67.7635 H          1           0.1356
     52 H23        18.6861    15.1480    66.2510 H          1           0.1344
@<TRIPOS>BOND
     1    1    2 1
     2    1   30 1
     3    1   31 1
     4    1   32 1
     5    2    3 1
     6    2    4 1
     7    2    5 1
     8    3   33 1
     9    3   34 1
    10    3   35 1
    11    4   36 1
    12    5    6 1
    13    5   37 1
    14    5   38 1
    15    6   15 1
    16    6    7 1
    17    7    8 2
    18    8    9 1
    19    8   16 1
    20    9   15 ar
    21    9   10 ar
    22   10   11 1
    23   10   12 ar
    24   11   39 1
    25   11   40 1
    26   12   13 ar
    27   13   14 ar
    28   13   41 1
    29   14   15 ar
    30   16   29 ar
    31   16   17 ar
    32   17   18 ar
    33   17   42 1
    34   18   19 ar
    35   18   43 1
    36   19   28 ar
    37   19   20 ar
    38   20   21 ar
    39   20   44 1
    40   21   22 1
    41   21   26 ar
    42   22   23 1
    43   23   25 1
    44   23   24 1
    45   23   45 1
    46   24   25 1
    47   24   46 1
    48   24   47 1
    49   25   48 1
    50   25   49 1
    51   26   27 ar
    52   26   50 1
    53   27   28 ar
    54   27   51 1
    55   28   29 ar
    56   29   52 1
##########                 Name:                 1610
##########          Protonation:                   14
##########               SMILES:   CCOc1ccc2ccc(cc2c1)c3c4c([nH+]cnc4n(n3)CC(C)C)N
##########            Long Name:   3-(7-ethoxy-2-naphthyl)-1-isobutyl-pyrazolo[3,4-d]pyrimidin-5-ium-4-amine
##########          FlexRecCode: 1
##########               Number:                  234
##########   Ligand Source File: /raid1/people/rgc/Examples/tdt/part3/ligand22set/build/ligand22set-0000001.db2.g
##########           GlobalRank: 12
##########                 Rank:                    1
##########               Setnum:                   92
##########             Matchnum:                31106
##########                Cloud:                    1
##########        Electrostatic:           -22.055952
##########        Van der Waals:           -22.982162
##########  Ligand Polar Desolv:             9.290627
########## Ligand Apolar Desolv:            -3.204778
##########      Internal Energy:             0.000000
##########      Receptor Energy: 0.0
########## Receptor Desolvation:             0.000000
########## Receptor Hydrophobic:             0.000000
##########         Total Energy: -38.95
##########        Ligand Charge:             1.000000
##########            Arbitrary:    +999.9990
##########     heavy atom count:   27
##########           pose count:    5
##########        Ligand Energy:             0.000000
# num electro vdwattr vdwrepu polsolv apolsol rdesolv rhydroe totalscore fullpol fullapo
#   1   -0.80   -1.47    0.53   -0.83   -0.13    0.00    0.00      -2.69   -1.37   -0.21
#   2    0.18   -1.30    0.26    0.23   -0.06    0.00    0.00      -0.70    0.39   -0.11
#   3   -1.05   -2.07    0.84   -1.25    0.43    0.00    0.00      -3.09   -2.55    0.88
#   4   -0.08   -1.62    0.33    0.31   -0.13    0.00    0.00      -1.18    0.73   -0.31
#   5    0.60   -1.57    0.39   -0.79   -0.18    0.00    0.00      -1.56   -1.85   -0.43
#   6    0.29   -1.19    0.17   -0.30   -0.18    0.00    0.00      -1.21   -0.79   -0.46
#   7    0.43   -0.83    0.06   -0.32   -0.12    0.00    0.00      -0.77   -1.04   -0.40
#   8    0.41   -0.69    0.04   -0.28   -0.12    0.00    0.00      -0.65   -1.06   -0.45
#   9    0.83   -0.58    0.03   -0.31   -0.10    0.00    0.00      -0.13   -1.35   -0.46
#  10    0.27   -0.70    0.06   -0.06   -0.09    0.00    0.00      -0.53   -0.28   -0.38
#  11    0.96   -1.26    0.27   -0.34   -0.09    0.00    0.00      -0.46   -1.11   -0.31
#  12    0.07   -1.12    0.18   -0.10   -0.13    0.00    0.00      -1.10   -0.30   -0.40
#  13    0.44   -1.59    0.28   -0.70   -0.19    0.00    0.00      -1.76   -1.73   -0.46
#  14   -1.54   -0.62    0.03    0.59   -0.17    0.00    0.00      -1.71    2.60   -0.75
#  15    0.43   -0.44    0.01   -0.57    0.20    0.00    0.00      -0.36   -3.30    1.18
#  16    0.27   -0.46    0.01   -0.91    0.20    0.00    0.00      -0.89   -4.76    1.03
#  17    0.22   -0.56    0.09    0.40   -0.10    0.00    0.00       0.05    1.72   -0.43
#  18   -0.13   -0.66    0.15   -0.32   -0.05    0.00    0.00      -1.01   -1.17   -0.20
#  19   -0.18   -0.37    0.02   -0.33   -0.04    0.00    0.00      -0.89   -1.66   -0.18
#  20    0.09   -0.58    0.04   -0.57   -0.06    0.00    0.00      -1.09   -1.62   -0.18
#  21   -1.78   -0.62    0.03    1.49   -0.41    0.00    0.00      -1.29    6.41   -1.76
#  22    2.42   -0.74    0.04   -3.20    0.55    0.00    0.00      -0.93  -11.50    1.99
#  23   -5.57   -1.47    0.40    4.12   -1.01    0.00    0.00      -3.53   12.83   -3.15
#  24   14.49   -3.58    4.21   -5.48    0.36    0.00    0.00      10.00  -15.29    1.00
#  25  -18.98   -0.27    0.22    6.84    0.24    0.00    0.00     -11.96   16.83    0.59
#  26  -11.94   -1.84    0.66    5.03   -0.74    0.00    0.00      -8.83   14.57   -2.14
#  27   18.95   -1.74    0.36   -7.82    0.32    0.00    0.00      10.07  -19.81    0.81
#  28    3.47   -0.88    0.09   -1.70   -0.12    0.00    0.00       0.86   -6.17   -0.44
#  29    0.23   -0.48    0.10    0.53   -0.15    0.00    0.00       0.25    1.00   -0.28
#  30    0.42   -1.05    2.57    0.25   -0.13    0.00    0.00       2.06    0.53   -0.28
#  31    0.52   -0.28    0.02    0.14   -0.09    0.00    0.00       0.30    0.40   -0.28
#  32    0.28   -0.57    0.19    0.44   -0.14    0.00    0.00       0.19    0.83   -0.27
#  33    0.12   -0.46    0.35    0.27   -0.11    0.00    0.00       0.16    0.64   -0.27
#  34   -0.67   -0.50    0.28    0.55   -0.09    0.00    0.00      -0.43    1.42   -0.22
#  35   -0.61   -0.28    0.03    0.62   -0.09    0.00    0.00      -0.33    1.85   -0.28
#  36   -0.48   -0.16    0.01    0.34   -0.05    0.00    0.00      -0.34    1.89   -0.28
#  37   -0.80   -0.10    0.00    0.15   -0.03    0.00    0.00      -0.78    1.49   -0.28
#  38   -1.06   -0.38    0.08    1.05   -0.07    0.00    0.00      -0.38    3.60   -0.24
#  39   -0.13   -0.43    0.08    0.91   -0.11    0.00    0.00       0.32    2.31   -0.28
#  40    0.29   -0.25    0.06    0.46   -0.06    0.00    0.00       0.50    2.04   -0.28
#  41    0.34   -0.19    0.04    0.19   -0.05    0.00    0.00       0.33    1.16   -0.28
#  42    0.16   -0.63    1.04    0.07   -0.07    0.00    0.00       0.57    0.29   -0.28
#  43    0.10   -0.12    0.01    0.05   -0.04    0.00    0.00      -0.01    0.38   -0.28
#  44    0.07   -0.10    0.01    0.07   -0.02    0.00    0.00       0.02    0.64   -0.22
#  45   -0.01   -0.08    0.00    0.09   -0.02    0.00    0.00      -0.01    1.17   -0.28
#  46   -0.01   -0.26    0.04    0.15   -0.07    0.00    0.00      -0.15    0.57   -0.28
#  47   -0.17   -0.13    0.01    0.05   -0.04    0.00    0.00      -0.28    0.41   -0.28
#  48   -0.03   -0.20    0.02    0.26   -0.07    0.00    0.00      -0.03    0.97   -0.28
#  49   -3.25   -0.26    0.05    2.60   -0.06    0.00    0.00      -0.93   11.52   -0.28
#  50  -11.49   -0.03    0.00    5.13    0.22    0.00    0.00      -6.16   13.52    0.59
#  51   -8.62   -0.01    0.00    2.10    0.08    0.00    0.00      -6.46    9.90    0.36

@<TRIPOS>MOLECULE
             1610        14
   51    54     0     0     0



@<TRIPOS>ATOM
      1 C1         20.2162    13.8811    64.5649 C.3        1          -0.1550
      2 C2         21.6322    13.8788    63.9857 C.3        1           0.0510
      3 O1         22.2937    15.0951    64.3394 O.3        1          -0.3124
      4 C3         23.2303    15.5626    63.4730 C.ar       1           0.1519
      5 C4         23.9533    14.6610    62.6855 C.ar       1          -0.1766
      6 C5         24.8968    15.0985    61.8089 C.ar       1          -0.0609
      7 C6         25.1532    16.4752    61.6883 C.ar       1          -0.0699
      8 C7         26.1228    16.9556    60.7896 C.ar       1          -0.0665
      9 C8         26.3540    18.2899    60.6895 C.ar       1          -0.1071
     10 C9         25.6356    19.2070    61.4748 C.ar       1          -0.0291
     11 C10        24.6755    18.7670    62.3674 C.ar       1          -0.1065
     12 C11        24.4214    17.3915    62.4857 C.ar       1          -0.0098
     13 C12        23.4496    16.9072    63.3782 C.ar       1          -0.1658
     14 C13        25.9093    20.6579    61.3457 C.2        1           0.2039
     15 N1         27.0582    21.2542    61.5609 N.2        1          -0.2013
     16 N2         26.9291    22.6292    61.3380 N.pl3      1          -0.3258
     17 C14        28.0042    23.6141    61.4805 C.3        1           0.1226
     18 C15        28.7368    23.7664    60.1459 C.3        1          -0.1136
     19 C16        29.3315    22.4182    59.7340 C.3        1          -0.1484
     20 C17        27.7517    24.2381    59.0743 C.3        1          -0.1479
     21 C18        25.6476    22.9104    60.9676 C.ar       1           0.3890
     22 N3         24.9921    24.0253    60.6448 N.ar       1          -0.4814
     23 C19        23.7185    23.9849    60.3210 C.ar       1           0.4161
     24 N4         23.0235    22.8614    60.2965 N.ar       1          -0.5699
     25 H1         22.0855    22.8860    60.0506 H          1           0.4510
     26 C20        23.5886    21.6978    60.6028 C.ar       1           0.5624
     27 N5         22.8569    20.5263    60.5753 N.pl3      1          -0.7968
     28 C21        24.9501    21.6884    60.9488 C.ar       1          -0.3037
     29 H2         19.7116    12.9533    64.2951 H          1           0.0838
     30 H3         20.2678    13.9642    65.6505 H          1           0.0679
     31 H4         19.6601    14.7276    64.1618 H          1           0.0687
     32 H5         22.1882    13.0323    64.3888 H          1           0.0665
     33 H6         21.5806    13.7957    62.9001 H          1           0.0669
     34 H7         23.7601    13.6023    62.7750 H          1           0.1390
     35 H8         25.4476    14.3902    61.2077 H          1           0.1416
     36 H9         26.6836    16.2631    60.1794 H          1           0.1422
     37 H10        27.1003    18.6509    59.9974 H          1           0.1352
     38 H11        24.1260    19.4758    62.9691 H          1           0.1333
     39 H12        22.8821    17.5942    63.9884 H          1           0.1379
     40 H13        27.5806    24.5746    61.7740 H          1           0.1158
     41 H14        28.7061    23.2781    62.2438 H          1           0.1170
     42 H15        29.5366    24.4991    60.2519 H          1           0.0835
     43 H16        29.8534    22.5266    58.7831 H          1           0.0674
     44 H17        30.0333    22.0822    60.4973 H          1           0.0393
     45 H18        28.5316    21.6853    59.6280 H          1           0.0686
     46 H19        28.2735    24.3465    58.1236 H          1           0.0648
     47 H20        26.9518    23.5052    58.9683 H          1           0.0710
     48 H21        27.3279    25.1985    59.3679 H          1           0.0646
     49 H22        23.2198    24.9081    60.0651 H          1           0.2534
     50 H23        21.9186    20.5462    60.3303 H          1           0.4293
     51 H24        23.2814    19.6839    60.8009 H          1           0.4428
@<TRIPOS>BOND
     1    1    2 1
     2    1   29 1
     3    1   30 1
     4    1   31 1
     5    2    3 1
     6    2   32 1
     7    2   33 1
     8    3    4 1
     9    4   13 ar
    10    4    5 ar
    11    5    6 ar
    12    5   34 1
    13    6    7 ar
    14    6   35 1
    15    7   12 ar
    16    7    8 ar
    17    8    9 ar
    18    8   36 1
    19    9   10 ar
    20    9   37 1
    21   10   11 ar
    22   10   14 1
    23   11   12 ar
    24   11   38 1
    25   12   13 ar
    26   13   39 1
    27   14   28 1
    28   14   15 2
    29   15   16 1
    30   16   17 1
    31   16   21 1
    32   17   18 1
    33   17   40 1
    34   17   41 1
    35   18   19 1
    36   18   20 1
    37   18   42 1
    38   19   43 1
    39   19   44 1
    40   19   45 1
    41   20   46 1
    42   20   47 1
    43   20   48 1
    44   21   28 ar
    45   21   22 ar
    46   22   23 ar
    47   23   24 ar
    48   23   49 1
    49   24   25 1
    50   24   26 ar
    51   26   27 1
    52   26   28 ar
    53   27   50 1
    54   27   51 1
##########                 Name:                 1610
##########          Protonation:                   14
##########               SMILES:   CCOc1ccc2ccc(cc2c1)c3c4c([nH+]cnc4n(n3)CC(C)C)N
##########            Long Name:   3-(7-ethoxy-2-naphthyl)-1-isobutyl-pyrazolo[3,4-d]pyrimidin-5-ium-4-amine
##########          FlexRecCode: 1
##########               Number:                  234
##########   Ligand Source File: /raid1/people/rgc/Examples/tdt/part3/ligand22set/build/ligand22set-0000001.db2.g
##########           GlobalRank: 14
##########                 Rank:                    2
##########               Setnum:                   85
##########             Matchnum:                56268
##########                Cloud:                    1
##########        Electrostatic:           -17.064970
##########        Van der Waals:           -26.268351
##########  Ligand Polar Desolv:             8.861454
########## Ligand Apolar Desolv:            -3.197060
##########      Internal Energy:             0.000000
##########      Receptor Energy: 0.0
########## Receptor Desolvation:             0.000000
########## Receptor Hydrophobic:             0.000000
##########         Total Energy: -37.67
##########        Ligand Charge:             1.000000
##########            Arbitrary:    +999.9990
##########     heavy atom count:   27
##########           pose count:    5
##########        Ligand Energy:             0.000000
# num electro vdwattr vdwrepu polsolv apolsol rdesolv rhydroe totalscore fullpol fullapo
#   1   -1.80   -1.43    0.21   -0.88   -0.13    0.00    0.00      -4.02   -1.37   -0.21
#   2    0.48   -1.25    0.21    0.23   -0.06    0.00    0.00      -0.40    0.39   -0.11
#   3   -4.38   -1.68    0.38   -1.36    0.47    0.00    0.00      -6.56   -2.55    0.88
#   4    1.16   -1.86    0.51    0.34   -0.15    0.00    0.00       0.01    0.73   -0.31
#   5   -0.62   -1.66    0.43   -0.96   -0.22    0.00    0.00      -3.04   -1.85   -0.43
#   6   -0.01   -1.69    0.54   -0.36   -0.21    0.00    0.00      -1.72   -0.79   -0.46
#   7    0.15   -1.32    0.19   -0.41   -0.16    0.00    0.00      -1.54   -1.04   -0.40
#   8    0.30   -1.20    0.18   -0.35   -0.15    0.00    0.00      -1.23   -1.06   -0.45
#   9    0.80   -1.51    0.79   -0.37   -0.13    0.00    0.00      -0.42   -1.35   -0.46
#  10    0.24   -1.52    0.43   -0.09   -0.12    0.00    0.00      -1.07   -0.28   -0.38
#  11    0.74   -1.53    0.18   -0.45   -0.13    0.00    0.00      -1.19   -1.11   -0.31
#  12    0.02   -1.41    0.17   -0.13   -0.17    0.00    0.00      -1.51   -0.30   -0.40
#  13   -0.80   -2.41    1.36   -0.80   -0.21    0.00    0.00      -2.85   -1.73   -0.46
#  14   -1.54   -1.48    0.40    0.74   -0.21    0.00    0.00      -2.09    2.60   -0.75
#  15    0.37   -2.61    2.20   -0.91    0.33    0.00    0.00      -0.63   -3.30    1.18
#  16   -0.20   -0.95    0.15   -1.09    0.24    0.00    0.00      -1.86   -4.76    1.03
#  17    0.32   -0.48    0.04    0.42   -0.10    0.00    0.00       0.19    1.72   -0.43
#  18   -0.29   -0.37    0.03   -0.22   -0.04    0.00    0.00      -0.89   -1.17   -0.20
#  19   -0.29   -0.24    0.01   -0.24   -0.03    0.00    0.00      -0.79   -1.66   -0.18
#  20   -0.16   -0.34    0.02   -0.27   -0.03    0.00    0.00      -0.77   -1.62   -0.18
#  21   -1.88   -0.73    0.06    1.49   -0.41    0.00    0.00      -1.48    6.41   -1.76
#  22    2.36   -0.60    0.02   -2.71    0.47    0.00    0.00      -0.46  -11.50    1.99
#  23   -4.19   -1.03    0.13    3.81   -0.93    0.00    0.00      -2.22   12.83   -3.15
#  24   11.54   -2.44    1.21   -5.38    0.35    0.00    0.00       5.28  -15.29    1.00
#  25  -11.06   -0.12    0.02    7.01    0.25    0.00    0.00      -3.91   16.83    0.59
#  26  -12.03   -1.52    0.39    4.91   -0.72    0.00    0.00      -8.97   14.57   -2.14
#  27   19.82   -1.78    0.45   -7.97    0.33    0.00    0.00      10.85  -19.81    0.81
#  28    3.59   -0.97    0.12   -1.77   -0.13    0.00    0.00       0.84   -6.17   -0.44
#  29    0.43   -0.51    0.11    0.56   -0.16    0.00    0.00       0.43    1.00   -0.28
#  30    1.03   -0.59    0.16    0.27   -0.15    0.00    0.00       0.73    0.53   -0.28
#  31    1.00   -0.39    0.06    0.18   -0.13    0.00    0.00       0.72    0.40   -0.28
#  32    0.49   -0.52    0.26    0.34   -0.11    0.00    0.00       0.46    0.83   -0.27
#  33    0.46   -0.49    0.26    0.26   -0.11    0.00    0.00       0.38    0.64   -0.27
#  34    0.56   -0.30    0.03    0.64   -0.10    0.00    0.00       0.84    1.42   -0.22
#  35   -0.19   -0.34    0.06    0.68   -0.10    0.00    0.00       0.10    1.85   -0.28
#  36   -0.55   -0.18    0.01    0.38   -0.06    0.00    0.00      -0.39    1.89   -0.28
#  37   -0.92   -0.23    0.10    0.22   -0.04    0.00    0.00      -0.88    1.49   -0.28
#  38   -1.26   -0.46    0.11    1.38   -0.09    0.00    0.00      -0.33    3.60   -0.24
#  39    1.20   -1.33    4.40    0.96   -0.12    0.00    0.00       5.10    2.31   -0.28
#  40    0.33   -0.15    0.01    0.35   -0.05    0.00    0.00       0.49    2.04   -0.28
#  41    0.30   -0.19    0.03    0.19   -0.05    0.00    0.00       0.29    1.16   -0.28
#  42    0.25   -0.23    0.06    0.05   -0.05    0.00    0.00       0.08    0.29   -0.28
#  43    0.14   -0.05    0.00    0.02   -0.01    0.00    0.00       0.10    0.38   -0.28
#  44    0.08   -0.09    0.01    0.06   -0.02    0.00    0.00       0.03    0.64   -0.22
#  45    0.09   -0.08    0.00    0.10   -0.02    0.00    0.00       0.09    1.17   -0.28
#  46    0.10   -0.10    0.01    0.06   -0.03    0.00    0.00       0.04    0.57   -0.28
#  47   -0.07   -0.06    0.00    0.02   -0.02    0.00    0.00      -0.13    0.41   -0.28
#  48    0.08   -0.14    0.02    0.14   -0.04    0.00    0.00       0.06    0.97   -0.28
#  49   -1.79   -0.19    0.02    2.16   -0.05    0.00    0.00       0.14   11.52   -0.28
#  50  -13.18   -0.05    0.00    5.44    0.24    0.00    0.00      -7.55   13.52    0.59
#  51   -8.28   -0.01    0.00    2.20    0.08    0.00    0.00      -6.01    9.90    0.36

@<TRIPOS>MOLECULE
             1610        14
   51    54     0     0     0



@<TRIPOS>ATOM
      1 C1         17.5597    15.2819    65.5097 C.3        1          -0.1550
      2 C2         18.7906    14.8667    64.7014 C.3        1           0.0510
      3 O1         19.2212    15.9629    63.8922 O.3        1          -0.3124
      4 C3         20.5490    16.0403    63.6141 C.ar       1           0.1519
      5 C4         21.3055    14.8674    63.5267 C.ar       1          -0.1766
      6 C5         22.6363    14.9124    63.2493 C.ar       1          -0.0609
      7 C6         23.2658    16.1527    63.0466 C.ar       1          -0.0699
      8 C7         24.6403    16.2290    62.7578 C.ar       1          -0.0665
      9 C8         25.2277    17.4379    62.5656 C.ar       1          -0.1071
     10 C9         24.4802    18.6244    62.6510 C.ar       1          -0.0291
     11 C10        23.1271    18.5836    62.9328 C.ar       1          -0.1065
     12 C11        22.5009    17.3436    63.1347 C.ar       1          -0.0098
     13 C12        21.1266    17.2621    63.4178 C.ar       1          -0.1658
     14 C13        25.1475    19.9305    62.4377 C.2        1           0.2039
     15 N1         26.1457    20.4167    63.1371 N.2        1          -0.2013
     16 N2         26.5068    21.6734    62.6399 N.pl3      1          -0.3258
     17 C14        27.5809    22.5167    63.1705 C.3        1           0.1226
     18 C15        28.8913    22.1847    62.4538 C.3        1          -0.1136
     19 C16        29.2386    20.7122    62.6824 C.3        1          -0.1484
     20 C17        28.7325    22.4443    60.9543 C.3        1          -0.1479
     21 C18        25.7040    21.9917    61.5850 C.ar       1           0.3890
     22 N3         25.6118    23.0378    60.7639 N.ar       1          -0.4814
     23 C19        24.7089    23.0633    59.8086 C.ar       1           0.4161
     24 N4         23.8545    22.0757    59.6075 N.ar       1          -0.5699
     25 H1         23.2073    22.1439    58.8881 H          1           0.4510
     26 C20        23.8675    20.9899    60.3741 C.ar       1           0.5624
     27 N5         22.9717    19.9603    60.1589 N.pl3      1          -0.7968
     28 C21        24.8191    20.9126    61.4046 C.ar       1          -0.3037
     29 H2         17.2313    14.4456    66.1270 H          1           0.0838
     30 H3         17.8130    16.1277    66.1487 H          1           0.0679
     31 H4         16.7577    15.5681    64.8291 H          1           0.0687
     32 H5         19.5925    14.5804    65.3820 H          1           0.0665
     33 H6         18.5373    14.0208    64.0624 H          1           0.0669
     34 H7         20.8262    13.9121    63.6821 H          1           0.1390
     35 H8         23.2076    13.9981    63.1854 H          1           0.1416
     36 H9         25.2285    15.3258    62.6892 H          1           0.1422
     37 H10        26.2837    17.4882    62.3446 H          1           0.1352
     38 H11        22.5567    19.4984    62.9977 H          1           0.1333
     39 H12        20.5315    18.1610    63.4837 H          1           0.1379
     40 H13        27.3334    23.5657    63.0077 H          1           0.1158
     41 H14        27.6941    22.3316    64.2387 H          1           0.1170
     42 H15        29.6904    22.8120    62.8485 H          1           0.0835
     43 H16        30.1721    20.4756    62.1718 H          1           0.0674
     44 H17        29.3518    20.5272    63.7506 H          1           0.0393
     45 H18        28.4394    20.0848    62.2877 H          1           0.0686
     46 H19        29.6659    22.2078    60.4437 H          1           0.0648
     47 H20        27.9333    21.8169    60.5596 H          1           0.0710
     48 H21        28.4849    23.4933    60.7914 H          1           0.0646
     49 H22        24.6633    23.9273    59.1621 H          1           0.2534
     50 H23        22.3226    20.0244    59.4409 H          1           0.4293
     51 H24        22.9919    19.1734    60.7256 H          1           0.4428
@<TRIPOS>BOND
     1    1    2 1
     2    1   29 1
     3    1   30 1
     4    1   31 1
     5    2    3 1
     6    2   32 1
     7    2   33 1
     8    3    4 1
     9    4   13 ar
    10    4    5 ar
    11    5    6 ar
    12    5   34 1
    13    6    7 ar
    14    6   35 1
    15    7   12 ar
    16    7    8 ar
    17    8    9 ar
    18    8   36 1
    19    9   10 ar
    20    9   37 1
    21   10   11 ar
    22   10   14 1
    23   11   12 ar
    24   11   38 1
    25   12   13 ar
    26   13   39 1
    27   14   28 1
    28   14   15 2
    29   15   16 1
    30   16   17 1
    31   16   21 1
    32   17   18 1
    33   17   40 1
    34   17   41 1
    35   18   19 1
    36   18   20 1
    37   18   42 1
    38   19   43 1
    39   19   44 1
    40   19   45 1
    41   20   46 1
    42   20   47 1
    43   20   48 1
    44   21   28 ar
    45   21   22 ar
    46   22   23 ar
    47   23   24 ar
    48   23   49 1
    49   24   25 1
    50   24   26 ar
    51   26   27 1
    52   26   28 ar
    53   27   50 1
    54   27   51 1
##########                 Name:                 1610
##########          Protonation:                   14
##########               SMILES:   CCOc1ccc2ccc(cc2c1)c3c4c([nH+]cnc4n(n3)CC(C)C)N
##########            Long Name:   3-(7-ethoxy-2-naphthyl)-1-isobutyl-pyrazolo[3,4-d]pyrimidin-5-ium-4-amine
##########          FlexRecCode: 1
##########               Number:                  234
##########   Ligand Source File: /raid1/people/rgc/Examples/tdt/part3/ligand22set/build/ligand22set-0000001.db2.g
##########           GlobalRank: 14
##########                 Rank:                    3
##########               Setnum:                   12
##########             Matchnum:                56268
##########                Cloud:                    1
##########        Electrostatic:           -16.887056
##########        Van der Waals:           -26.242943
##########  Ligand Polar Desolv:             8.741614
########## Ligand Apolar Desolv:            -3.234796
##########      Internal Energy:             0.000000
##########      Receptor Energy: 0.0
########## Receptor Desolvation:             0.000000
########## Receptor Hydrophobic:             0.000000
##########         Total Energy: -37.62
##########        Ligand Charge:             1.000000
##########            Arbitrary:    +999.9990
##########     heavy atom count:   27
##########           pose count:    5
##########        Ligand Energy:             0.000000
# num electro vdwattr vdwrepu polsolv apolsol rdesolv rhydroe totalscore fullpol fullapo
#   1   -1.80   -1.43    0.21   -0.88   -0.13    0.00    0.00      -4.02   -1.37   -0.21
#   2    0.48   -1.25    0.21    0.23   -0.06    0.00    0.00      -0.40    0.39   -0.11
#   3   -4.38   -1.68    0.38   -1.36    0.47    0.00    0.00      -6.56   -2.55    0.88
#   4    1.16   -1.86    0.51    0.34   -0.15    0.00    0.00       0.01    0.73   -0.31
#   5   -0.62   -1.66    0.43   -0.96   -0.22    0.00    0.00      -3.04   -1.85   -0.43
#   6   -0.01   -1.69    0.54   -0.36   -0.21    0.00    0.00      -1.72   -0.79   -0.46
#   7    0.15   -1.32    0.19   -0.41   -0.16    0.00    0.00      -1.54   -1.04   -0.40
#   8    0.30   -1.20    0.18   -0.35   -0.15    0.00    0.00      -1.23   -1.06   -0.45
#   9    0.80   -1.51    0.79   -0.37   -0.13    0.00    0.00      -0.42   -1.35   -0.46
#  10    0.24   -1.52    0.43   -0.09   -0.12    0.00    0.00      -1.07   -0.28   -0.38
#  11    0.74   -1.53    0.18   -0.45   -0.13    0.00    0.00      -1.19   -1.11   -0.31
#  12    0.02   -1.41    0.17   -0.13   -0.17    0.00    0.00      -1.51   -0.30   -0.40
#  13   -0.80   -2.41    1.36   -0.80   -0.21    0.00    0.00      -2.85   -1.73   -0.46
#  14   -1.54   -1.48    0.40    0.74   -0.21    0.00    0.00      -2.09    2.60   -0.75
#  15    0.37   -2.61    2.20   -0.91    0.33    0.00    0.00      -0.63   -3.30    1.18
#  16   -0.20   -0.95    0.15   -1.09    0.24    0.00    0.00      -1.86   -4.76    1.03
#  17    0.32   -0.48    0.04    0.42   -0.10    0.00    0.00       0.19    1.72   -0.43
#  18   -0.27   -0.36    0.02   -0.23   -0.04    0.00    0.00      -0.87   -1.17   -0.20
#  19   -0.28   -0.22    0.01   -0.24   -0.03    0.00    0.00      -0.75   -1.66   -0.18
#  20   -0.42   -0.64    0.14   -0.36   -0.04    0.00    0.00      -1.32   -1.62   -0.18
#  21   -1.88   -0.73    0.06    1.49   -0.41    0.00    0.00      -1.48    6.41   -1.76
#  22    2.36   -0.60    0.02   -2.71    0.47    0.00    0.00      -0.46  -11.50    1.99
#  23   -4.19   -1.03    0.13    3.81   -0.93    0.00    0.00      -2.22   12.83   -3.15
#  24   11.54   -2.44    1.21   -5.38    0.35    0.00    0.00       5.28  -15.29    1.00
#  25  -11.06   -0.12    0.02    7.01    0.25    0.00    0.00      -3.91   16.83    0.59
#  26  -12.03   -1.52    0.39    4.91   -0.72    0.00    0.00      -8.97   14.57   -2.14
#  27   19.82   -1.78    0.45   -7.97    0.33    0.00    0.00      10.85  -19.81    0.81
#  28    3.59   -0.97    0.12   -1.77   -0.13    0.00    0.00       0.84   -6.17   -0.44
#  29    0.43   -0.51    0.11    0.56   -0.16    0.00    0.00       0.43    1.00   -0.28
#  30    1.03   -0.59    0.16    0.27   -0.15    0.00    0.00       0.73    0.53   -0.28
#  31    1.00   -0.39    0.06    0.18   -0.13    0.00    0.00       0.72    0.40   -0.28
#  32    0.49   -0.52    0.26    0.34   -0.11    0.00    0.00       0.46    0.83   -0.27
#  33    0.46   -0.49    0.26    0.26   -0.11    0.00    0.00       0.38    0.64   -0.27
#  34    0.56   -0.30    0.03    0.64   -0.10    0.00    0.00       0.84    1.42   -0.22
#  35   -0.19   -0.34    0.06    0.68   -0.10    0.00    0.00       0.10    1.85   -0.28
#  36   -0.55   -0.18    0.01    0.38   -0.06    0.00    0.00      -0.39    1.89   -0.28
#  37   -0.92   -0.23    0.10    0.22   -0.04    0.00    0.00      -0.88    1.49   -0.28
#  38   -1.26   -0.46    0.11    1.38   -0.09    0.00    0.00      -0.33    3.60   -0.24
#  39    1.20   -1.33    4.40    0.96   -0.12    0.00    0.00       5.10    2.31   -0.28
#  40    0.33   -0.13    0.01    0.28   -0.04    0.00    0.00       0.45    2.04   -0.28
#  41    0.33   -0.19    0.03    0.21   -0.05    0.00    0.00       0.32    1.16   -0.28
#  42    0.17   -0.17    0.03    0.04   -0.04    0.00    0.00       0.02    0.29   -0.28
#  43    0.14   -0.05    0.00    0.02   -0.01    0.00    0.00       0.09    0.38   -0.28
#  44    0.01   -0.05    0.00    0.04   -0.01    0.00    0.00      -0.02    0.64   -0.22
#  45    0.12   -0.08    0.00    0.09   -0.02    0.00    0.00       0.12    1.17   -0.28
#  46    0.17   -0.11    0.01    0.05   -0.03    0.00    0.00       0.09    0.57   -0.28
#  47    0.24   -0.62    0.74    0.09   -0.06    0.00    0.00       0.39    0.41   -0.28
#  48    0.19   -0.18    0.02    0.14   -0.04    0.00    0.00       0.13    0.97   -0.28
#  49   -1.79   -0.19    0.02    2.16   -0.05    0.00    0.00       0.14   11.52   -0.28
#  50  -13.18   -0.05    0.00    5.44    0.24    0.00    0.00      -7.55   13.52    0.59
#  51   -8.28   -0.01    0.00    2.20    0.08    0.00    0.00      -6.01    9.90    0.36

@<TRIPOS>MOLECULE
             1610        14
   51    54     0     0     0



@<TRIPOS>ATOM
      1 C1         17.5597    15.2819    65.5097 C.3        1          -0.1550
      2 C2         18.7906    14.8667    64.7014 C.3        1           0.0510
      3 O1         19.2212    15.9629    63.8922 O.3        1          -0.3124
      4 C3         20.5490    16.0403    63.6141 C.ar       1           0.1519
      5 C4         21.3055    14.8674    63.5267 C.ar       1          -0.1766
      6 C5         22.6363    14.9124    63.2493 C.ar       1          -0.0609
      7 C6         23.2658    16.1527    63.0466 C.ar       1          -0.0699
      8 C7         24.6403    16.2290    62.7578 C.ar       1          -0.0665
      9 C8         25.2277    17.4379    62.5656 C.ar       1          -0.1071
     10 C9         24.4802    18.6244    62.6510 C.ar       1          -0.0291
     11 C10        23.1271    18.5836    62.9328 C.ar       1          -0.1065
     12 C11        22.5009    17.3436    63.1347 C.ar       1          -0.0098
     13 C12        21.1266    17.2621    63.4178 C.ar       1          -0.1658
     14 C13        25.1475    19.9305    62.4377 C.2        1           0.2039
     15 N1         26.1457    20.4167    63.1371 N.2        1          -0.2013
     16 N2         26.5068    21.6734    62.6399 N.pl3      1          -0.3258
     17 C14        27.5809    22.5167    63.1705 C.3        1           0.1226
     18 C15        28.8237    21.6608    63.4233 C.3        1          -0.1136
     19 C16        29.2785    21.0217    62.1096 C.3        1          -0.1484
     20 C17        29.9454    22.5414    63.9774 C.3        1          -0.1479
     21 C18        25.7040    21.9917    61.5850 C.ar       1           0.3890
     22 N3         25.6118    23.0378    60.7639 N.ar       1          -0.4814
     23 C19        24.7089    23.0633    59.8086 C.ar       1           0.4161
     24 N4         23.8545    22.0757    59.6075 N.ar       1          -0.5699
     25 H1         23.2073    22.1439    58.8881 H          1           0.4510
     26 C20        23.8675    20.9899    60.3741 C.ar       1           0.5624
     27 N5         22.9717    19.9603    60.1589 N.pl3      1          -0.7968
     28 C21        24.8191    20.9126    61.4046 C.ar       1          -0.3037
     29 H2         17.2313    14.4456    66.1270 H          1           0.0838
     30 H3         17.8130    16.1277    66.1487 H          1           0.0679
     31 H4         16.7577    15.5681    64.8291 H          1           0.0687
     32 H5         19.5925    14.5804    65.3820 H          1           0.0665
     33 H6         18.5373    14.0208    64.0624 H          1           0.0669
     34 H7         20.8262    13.9121    63.6821 H          1           0.1390
     35 H8         23.2076    13.9981    63.1854 H          1           0.1416
     36 H9         25.2285    15.3258    62.6892 H          1           0.1422
     37 H10        26.2837    17.4882    62.3446 H          1           0.1352
     38 H11        22.5567    19.4984    62.9977 H          1           0.1333
     39 H12        20.5315    18.1610    63.4837 H          1           0.1379
     40 H13        27.8188    23.2987    62.4494 H          1           0.1158
     41 H14        27.2568    22.9720    64.1064 H          1           0.1170
     42 H15        28.5857    20.8788    64.1444 H          1           0.0835
     43 H16        30.1639    20.4119    62.2897 H          1           0.0674
     44 H17        28.4794    20.3943    61.7148 H          1           0.0393
     45 H18        29.5164    21.8037    61.3884 H          1           0.0686
     46 H19        30.8306    21.9317    64.1574 H          1           0.0648
     47 H20        30.1833    23.3233    63.2561 H          1           0.0710
     48 H21        29.6213    22.9967    64.9132 H          1           0.0646
     49 H22        24.6633    23.9273    59.1621 H          1           0.2534
     50 H23        22.3226    20.0244    59.4409 H          1           0.4293
     51 H24        22.9919    19.1734    60.7256 H          1           0.4428
@<TRIPOS>BOND
     1    1    2 1
     2    1   29 1
     3    1   30 1
     4    1   31 1
     5    2    3 1
     6    2   32 1
     7    2   33 1
     8    3    4 1
     9    4   13 ar
    10    4    5 ar
    11    5    6 ar
    12    5   34 1
    13    6    7 ar
    14    6   35 1
    15    7   12 ar
    16    7    8 ar
    17    8    9 ar
    18    8   36 1
    19    9   10 ar
    20    9   37 1
    21   10   11 ar
    22   10   14 1
    23   11   12 ar
    24   11   38 1
    25   12   13 ar
    26   13   39 1
    27   14   28 1
    28   14   15 2
    29   15   16 1
    30   16   17 1
    31   16   21 1
    32   17   18 1
    33   17   40 1
    34   17   41 1
    35   18   19 1
    36   18   20 1
    37   18   42 1
    38   19   43 1
    39   19   44 1
    40   19   45 1
    41   20   46 1
    42   20   47 1
    43   20   48 1
    44   21   28 ar
    45   21   22 ar
    46   22   23 ar
    47   23   24 ar
    48   23   49 1
    49   24   25 1
    50   24   26 ar
    51   26   27 1
    52   26   28 ar
    53   27   50 1
    54   27   51 1
##########                 Name:                 1610
##########          Protonation:                   14
##########               SMILES:   CCOc1ccc2ccc(cc2c1)c3c4c([nH+]cnc4n(n3)CC(C)C)N
##########            Long Name:   3-(7-ethoxy-2-naphthyl)-1-isobutyl-pyrazolo[3,4-d]pyrimidin-5-ium-4-amine
##########          FlexRecCode: 1
##########               Number:                  234
##########   Ligand Source File: /raid1/people/rgc/Examples/tdt/part3/ligand22set/build/ligand22set-0000001.db2.g
##########           GlobalRank: 15
##########                 Rank:                    4
##########               Setnum:                   85
##########             Matchnum:                17022
##########                Cloud:                    1
##########        Electrostatic:           -18.987900
##########        Van der Waals:           -21.261330
##########  Ligand Polar Desolv:             7.429595
########## Ligand Apolar Desolv:            -3.234673
##########      Internal Energy:             0.000000
##########      Receptor Energy: 0.0
########## Receptor Desolvation:             0.000000
########## Receptor Hydrophobic:             0.000000
##########         Total Energy: -36.05
##########        Ligand Charge:             1.000000
##########            Arbitrary:    +999.9990
##########     heavy atom count:   27
##########           pose count:    5
##########        Ligand Energy:             0.000000
# num electro vdwattr vdwrepu polsolv apolsol rdesolv rhydroe totalscore fullpol fullapo
#   1   -1.45   -1.48    0.25   -0.86   -0.13    0.00    0.00      -3.66   -1.37   -0.21
#   2    0.44   -1.22    0.20    0.23   -0.06    0.00    0.00      -0.42    0.39   -0.11
#   3   -4.25   -1.68    0.38   -1.35    0.47    0.00    0.00      -6.43   -2.55    0.88
#   4    1.10   -1.81    0.46    0.34   -0.14    0.00    0.00      -0.05    0.73   -0.31
#   5   -0.46   -1.98    1.55   -0.93   -0.22    0.00    0.00      -2.04   -1.85   -0.43
#   6    0.07   -2.30    3.16   -0.34   -0.20    0.00    0.00       0.40   -0.79   -0.46
#   7    0.23   -1.23    0.22   -0.39   -0.15    0.00    0.00      -1.32   -1.04   -0.40
#   8    0.37   -0.98    0.09   -0.34   -0.14    0.00    0.00      -0.99   -1.06   -0.45
#   9    0.83   -1.15    0.34   -0.36   -0.12    0.00    0.00      -0.47   -1.35   -0.46
#  10    0.24   -1.69    0.56   -0.09   -0.13    0.00    0.00      -1.11   -0.28   -0.38
#  11    0.68   -1.84    0.30   -0.47   -0.13    0.00    0.00      -1.46   -1.11   -0.31
#  12    0.02   -1.42    0.17   -0.13   -0.17    0.00    0.00      -1.52   -0.30   -0.40
#  13   -0.75   -2.62    1.74   -0.80   -0.21    0.00    0.00      -2.64   -1.73   -0.46
#  14   -1.26   -2.09    1.02    0.77   -0.22    0.00    0.00      -1.78    2.60   -0.75
#  15    0.18   -3.89    6.05   -0.94    0.34    0.00    0.00       1.74   -3.30    1.18
#  16   -0.74   -1.43    0.56   -1.17    0.25    0.00    0.00      -2.54   -4.76    1.03
#  17    0.32   -0.57    0.08    0.42   -0.11    0.00    0.00       0.15    1.72   -0.43
#  18   -0.29   -0.40    0.03   -0.23   -0.04    0.00    0.00      -0.93   -1.17   -0.20
#  19   -0.29   -0.24    0.01   -0.24   -0.03    0.00    0.00      -0.79   -1.66   -0.18
#  20   -0.27   -0.46    0.06   -0.33   -0.04    0.00    0.00      -1.02   -1.62   -0.18
#  21   -0.22   -1.16    0.23    1.60   -0.44    0.00    0.00       0.02    6.41   -1.76
#  22   -0.74   -0.85    0.08   -3.00    0.52    0.00    0.00      -4.00  -11.50    1.99
#  23   -2.60   -1.01    0.16    3.74   -0.92    0.00    0.00      -0.63   12.83   -3.15
#  24   10.08   -1.92    0.84   -4.96    0.32    0.00    0.00       4.37  -15.29    1.00
#  25  -11.76   -0.06    0.00    5.50    0.19    0.00    0.00      -6.11   16.83    0.59
#  26  -10.52   -2.15    1.84    4.97   -0.73    0.00    0.00      -6.59   14.57   -2.14
#  27   18.46   -1.89    0.54   -7.79    0.32    0.00    0.00       9.63  -19.81    0.81
#  28    2.73   -1.58    0.54   -1.82   -0.13    0.00    0.00      -0.25   -6.17   -0.44
#  29    0.24   -0.68    0.35    0.54   -0.15    0.00    0.00       0.30    1.00   -0.28
#  30    0.75   -0.55    0.13    0.28   -0.15    0.00    0.00       0.46    0.53   -0.28
#  31    0.90   -0.38    0.05    0.17   -0.12    0.00    0.00       0.63    0.40   -0.28
#  32    0.42   -0.43    0.15    0.34   -0.11    0.00    0.00       0.36    0.83   -0.27
#  33    0.47   -0.50    0.28    0.27   -0.11    0.00    0.00       0.40    0.64   -0.27
#  34    0.45   -0.37    0.17    0.62   -0.10    0.00    0.00       0.77    1.42   -0.22
#  35   -0.44   -0.55    0.64    0.64   -0.10    0.00    0.00       0.19    1.85   -0.28
#  36   -0.68   -0.16    0.01    0.35   -0.05    0.00    0.00      -0.54    1.89   -0.28
#  37   -0.91   -0.15    0.03    0.19   -0.04    0.00    0.00      -0.89    1.49   -0.28
#  38   -0.97   -0.65    0.21    1.59   -0.11    0.00    0.00       0.07    3.60   -0.24
#  39    1.04   -1.36    3.38    1.06   -0.13    0.00    0.00       3.98    2.31   -0.28
#  40    0.33   -0.16    0.01    0.37   -0.05    0.00    0.00       0.50    2.04   -0.28
#  41    0.28   -0.22    0.06    0.20   -0.05    0.00    0.00       0.27    1.16   -0.28
#  42    0.24   -0.21    0.05    0.04   -0.04    0.00    0.00       0.08    0.29   -0.28
#  43    0.14   -0.05    0.00    0.02   -0.01    0.00    0.00       0.10    0.38   -0.28
#  44    0.07   -0.08    0.00    0.05   -0.02    0.00    0.00       0.03    0.64   -0.22
#  45    0.08   -0.07    0.00    0.09   -0.02    0.00    0.00       0.09    1.17   -0.28
#  46    0.12   -0.14    0.02    0.07   -0.04    0.00    0.00       0.03    0.57   -0.28
#  47   -0.01   -0.07    0.00    0.03   -0.02    0.00    0.00      -0.07    0.41   -0.28
#  48    0.16   -0.25    0.07    0.20   -0.06    0.00    0.00       0.13    0.97   -0.28
#  49   -1.31   -0.15    0.01    1.68   -0.04    0.00    0.00       0.20   11.52   -0.28
#  50  -12.45   -0.04    0.00    5.26    0.23    0.00    0.00      -7.00   13.52    0.59
#  51   -8.08   -0.02    0.00    2.35    0.09    0.00    0.00      -5.67    9.90    0.36

@<TRIPOS>MOLECULE
             1610        14
   51    54     0     0     0



@<TRIPOS>ATOM
      1 C1         17.8366    14.9163    65.5477 C.3        1          -0.1550
      2 C2         18.9430    14.6962    64.5142 C.3        1           0.0510
      3 O1         19.3228    15.9520    63.9479 O.3        1          -0.3124
      4 C3         20.6103    16.0770    63.5317 C.ar       1           0.1519
      5 C4         21.2980    14.9514    63.0672 C.ar       1          -0.1766
      6 C5         22.5871    15.0449    62.6435 C.ar       1          -0.0609
      7 C6         23.2427    16.2879    62.6705 C.ar       1          -0.0699
      8 C7         24.5751    16.4138    62.2379 C.ar       1          -0.0665
      9 C8         25.1889    17.6245    62.2727 C.ar       1          -0.1071
     10 C9         24.5104    18.7636    62.7374 C.ar       1          -0.0291
     11 C10        23.1998    18.6735    63.1692 C.ar       1          -0.1065
     12 C11        22.5475    17.4309    63.1411 C.ar       1          -0.0098
     13 C12        21.2143    17.3013    63.5670 C.ar       1          -0.1658
     14 C13        25.2051    20.0725    62.7654 C.2        1           0.2039
     15 N1         26.3000    20.3572    63.4303 N.2        1          -0.2013
     16 N2         26.6551    21.6926    63.2119 N.pl3      1          -0.3258
     17 C14        27.8211    22.3638    63.7916 C.3        1           0.1226
     18 C15        29.0209    22.2005    62.8563 C.3        1          -0.1136
     19 C16        29.3270    20.7125    62.6746 C.3        1          -0.1484
     20 C17        28.6968    22.8242    61.4972 C.3        1          -0.1479
     21 C18        25.7476    22.2724    62.3759 C.ar       1           0.3890
     22 N3         25.6052    23.4898    61.8519 N.ar       1          -0.4814
     23 C19        24.5971    23.7628    61.0533 C.ar       1           0.4161
     24 N4         23.6818    22.8673    60.7276 N.ar       1          -0.5699
     25 H1         22.9573    23.1199    60.1339 H          1           0.4510
     26 C20        23.7374    21.6259    61.1995 C.ar       1           0.5624
     27 N5         22.7774    20.6938    60.8553 N.pl3      1          -0.7968
     28 C21        24.8003    21.2835    62.0518 C.ar       1          -0.3037
     29 H2         17.5470    13.9583    65.9797 H          1           0.0838
     30 H3         18.2015    15.5748    66.3359 H          1           0.0679
     31 H4         16.9730    15.3727    65.0639 H          1           0.0687
     32 H5         19.8066    14.2397    64.9981 H          1           0.0665
     33 H6         18.5781    14.0376    63.7260 H          1           0.0669
     34 H7         20.7985    13.9942    63.0450 H          1           0.1390
     35 H8         23.1054    14.1667    62.2878 H          1           0.1416
     36 H9         25.1102    15.5473    61.8783 H          1           0.1422
     37 H10        26.2122    17.7130    61.9391 H          1           0.1352
     38 H11        22.6826    19.5519    63.5258 H          1           0.1333
     39 H12        20.6719    18.1643    63.9238 H          1           0.1379
     40 H13        27.6031    23.4239    63.9211 H          1           0.1158
     41 H14        28.0521    21.9194    64.7597 H          1           0.1170
     42 H15        29.8884    22.6999    63.2875 H          1           0.0835
     43 H16        30.1818    20.5961    62.0083 H          1           0.0674
     44 H17        29.5580    20.2682    63.6428 H          1           0.0393
     45 H18        28.4594    20.2130    62.2433 H          1           0.0686
     46 H19        29.5515    22.7078    60.8309 H          1           0.0648
     47 H20        27.8292    22.3247    61.0659 H          1           0.0710
     48 H21        28.4786    23.8843    61.6267 H          1           0.0646
     49 H22        24.5136    24.7600    60.6471 H          1           0.2534
     50 H23        22.0511    20.9420    60.2623 H          1           0.4293
     51 H24        22.8298    19.7913    61.2066 H          1           0.4428
@<TRIPOS>BOND
     1    1    2 1
     2    1   29 1
     3    1   30 1
     4    1   31 1
     5    2    3 1
     6    2   32 1
     7    2   33 1
     8    3    4 1
     9    4   13 ar
    10    4    5 ar
    11    5    6 ar
    12    5   34 1
    13    6    7 ar
    14    6   35 1
    15    7   12 ar
    16    7    8 ar
    17    8    9 ar
    18    8   36 1
    19    9   10 ar
    20    9   37 1
    21   10   11 ar
    22   10   14 1
    23   11   12 ar
    24   11   38 1
    25   12   13 ar
    26   13   39 1
    27   14   28 1
    28   14   15 2
    29   15   16 1
    30   16   17 1
    31   16   21 1
    32   17   18 1
    33   17   40 1
    34   17   41 1
    35   18   19 1
    36   18   20 1
    37   18   42 1
    38   19   43 1
    39   19   44 1
    40   19   45 1
    41   20   46 1
    42   20   47 1
    43   20   48 1
    44   21   28 ar
    45   21   22 ar
    46   22   23 ar
    47   23   24 ar
    48   23   49 1
    49   24   25 1
    50   24   26 ar
    51   26   27 1
    52   26   28 ar
    53   27   50 1
    54   27   51 1
##########                 Name:                 1610
##########          Protonation:                   14
##########               SMILES:   CCOc1ccc2ccc(cc2c1)c3c4c([nH+]cnc4n(n3)CC(C)C)N
##########            Long Name:   3-(7-ethoxy-2-naphthyl)-1-isobutyl-pyrazolo[3,4-d]pyrimidin-5-ium-4-amine
##########          FlexRecCode: 1
##########               Number:                  234
##########   Ligand Source File: /raid1/people/rgc/Examples/tdt/part3/ligand22set/build/ligand22set-0000001.db2.g
##########           GlobalRank: 15
##########                 Rank:                    5
##########               Setnum:                   12
##########             Matchnum:                17022
##########                Cloud:                    1
##########        Electrostatic:           -18.854397
##########        Van der Waals:           -21.197496
##########  Ligand Polar Desolv:             7.292895
########## Ligand Apolar Desolv:            -3.218147
##########      Internal Energy:             0.000000
##########      Receptor Energy: 0.0
########## Receptor Desolvation:             0.000000
########## Receptor Hydrophobic:             0.000000
##########         Total Energy: -35.98
##########        Ligand Charge:             1.000000
##########            Arbitrary:    +999.9990
##########     heavy atom count:   27
##########           pose count:    5
##########        Ligand Energy:             0.000000
# num electro vdwattr vdwrepu polsolv apolsol rdesolv rhydroe totalscore fullpol fullapo
#   1   -1.45   -1.48    0.25   -0.86   -0.13    0.00    0.00      -3.66   -1.37   -0.21
#   2    0.44   -1.22    0.20    0.23   -0.06    0.00    0.00      -0.42    0.39   -0.11
#   3   -4.25   -1.68    0.38   -1.35    0.47    0.00    0.00      -6.43   -2.55    0.88
#   4    1.10   -1.81    0.46    0.34   -0.14    0.00    0.00      -0.05    0.73   -0.31
#   5   -0.46   -1.98    1.55   -0.93   -0.22    0.00    0.00      -2.04   -1.85   -0.43
#   6    0.07   -2.30    3.16   -0.34   -0.20    0.00    0.00       0.40   -0.79   -0.46
#   7    0.23   -1.23    0.22   -0.39   -0.15    0.00    0.00      -1.32   -1.04   -0.40
#   8    0.37   -0.98    0.09   -0.34   -0.14    0.00    0.00      -0.99   -1.06   -0.45
#   9    0.83   -1.15    0.34   -0.36   -0.12    0.00    0.00      -0.47   -1.35   -0.46
#  10    0.24   -1.69    0.56   -0.09   -0.13    0.00    0.00      -1.11   -0.28   -0.38
#  11    0.68   -1.84    0.30   -0.47   -0.13    0.00    0.00      -1.46   -1.11   -0.31
#  12    0.02   -1.42    0.17   -0.13   -0.17    0.00    0.00      -1.52   -0.30   -0.40
#  13   -0.75   -2.62    1.74   -0.80   -0.21    0.00    0.00      -2.64   -1.73   -0.46
#  14   -1.26   -2.09    1.02    0.77   -0.22    0.00    0.00      -1.78    2.60   -0.75
#  15    0.18   -3.89    6.05   -0.94    0.34    0.00    0.00       1.74   -3.30    1.18
#  16   -0.74   -1.43    0.56   -1.17    0.25    0.00    0.00      -2.54   -4.76    1.03
#  17    0.32   -0.57    0.08    0.42   -0.11    0.00    0.00       0.15    1.72   -0.43
#  18   -0.26   -0.36    0.02   -0.22   -0.04    0.00    0.00      -0.86   -1.17   -0.20
#  19   -0.30   -0.23    0.01   -0.25   -0.03    0.00    0.00      -0.80   -1.66   -0.18
#  20   -0.39   -0.46    0.05   -0.33   -0.04    0.00    0.00      -1.18   -1.62   -0.18
#  21   -0.22   -1.16    0.23    1.60   -0.44    0.00    0.00       0.02    6.41   -1.76
#  22   -0.74   -0.85    0.08   -3.00    0.52    0.00    0.00      -4.00  -11.50    1.99
#  23   -2.60   -1.01    0.16    3.74   -0.92    0.00    0.00      -0.63   12.83   -3.15
#  24   10.08   -1.92    0.84   -4.96    0.32    0.00    0.00       4.37  -15.29    1.00
#  25  -11.76   -0.06    0.00    5.50    0.19    0.00    0.00      -6.11   16.83    0.59
#  26  -10.52   -2.15    1.84    4.97   -0.73    0.00    0.00      -6.59   14.57   -2.14
#  27   18.46   -1.89    0.54   -7.79    0.32    0.00    0.00       9.63  -19.81    0.81
#  28    2.73   -1.58    0.54   -1.82   -0.13    0.00    0.00      -0.25   -6.17   -0.44
#  29    0.24   -0.68    0.35    0.54   -0.15    0.00    0.00       0.30    1.00   -0.28
#  30    0.75   -0.55    0.13    0.28   -0.15    0.00    0.00       0.46    0.53   -0.28
#  31    0.90   -0.38    0.05    0.17   -0.12    0.00    0.00       0.63    0.40   -0.28
#  32    0.42   -0.43    0.15    0.34   -0.11    0.00    0.00       0.36    0.83   -0.27
#  33    0.47   -0.50    0.28    0.27   -0.11    0.00    0.00       0.40    0.64   -0.27
#  34    0.45   -0.37    0.17    0.62   -0.10    0.00    0.00       0.77    1.42   -0.22
#  35   -0.44   -0.55    0.64    0.64   -0.10    0.00    0.00       0.19    1.85   -0.28
#  36   -0.68   -0.16    0.01    0.35   -0.05    0.00    0.00      -0.54    1.89   -0.28
#  37   -0.91   -0.15    0.03    0.19   -0.04    0.00    0.00      -0.89    1.49   -0.28
#  38   -0.97   -0.65    0.21    1.59   -0.11    0.00    0.00       0.07    3.60   -0.24
#  39    1.04   -1.36    3.38    1.06   -0.13    0.00    0.00       3.98    2.31   -0.28
#  40    0.33   -0.15    0.01    0.32   -0.04    0.00    0.00       0.47    2.04   -0.28
#  41    0.31   -0.23    0.06    0.20   -0.05    0.00    0.00       0.29    1.16   -0.28
#  42    0.15   -0.17    0.03    0.04   -0.04    0.00    0.00       0.02    0.29   -0.28
#  43    0.14   -0.05    0.00    0.02   -0.01    0.00    0.00       0.10    0.38   -0.28
#  44    0.02   -0.06    0.00    0.04   -0.01    0.00    0.00      -0.01    0.64   -0.22
#  45    0.14   -0.10    0.01    0.12   -0.03    0.00    0.00       0.14    1.17   -0.28
#  46    0.16   -0.09    0.00    0.04   -0.02    0.00    0.00       0.09    0.57   -0.28
#  47    0.23   -0.41    0.26    0.08   -0.06    0.00    0.00       0.11    0.41   -0.28
#  48    0.17   -0.11    0.01    0.09   -0.03    0.00    0.00       0.12    0.97   -0.28
#  49   -1.31   -0.15    0.01    1.68   -0.04    0.00    0.00       0.20   11.52   -0.28
#  50  -12.45   -0.04    0.00    5.26    0.23    0.00    0.00      -7.00   13.52    0.59
#  51   -8.08   -0.02    0.00    2.35    0.09    0.00    0.00      -5.67    9.90    0.36

@<TRIPOS>MOLECULE
             1610        14
   51    54     0     0     0



@<TRIPOS>ATOM
      1 C1         17.8366    14.9163    65.5477 C.3        1          -0.1550
      2 C2         18.9430    14.6962    64.5142 C.3        1           0.0510
      3 O1         19.3228    15.9520    63.9479 O.3        1          -0.3124
      4 C3         20.6103    16.0770    63.5317 C.ar       1           0.1519
      5 C4         21.2980    14.9514    63.0672 C.ar       1          -0.1766
      6 C5         22.5871    15.0449    62.6435 C.ar       1          -0.0609
      7 C6         23.2427    16.2879    62.6705 C.ar       1          -0.0699
      8 C7         24.5751    16.4138    62.2379 C.ar       1          -0.0665
      9 C8         25.1889    17.6245    62.2727 C.ar       1          -0.1071
     10 C9         24.5104    18.7636    62.7374 C.ar       1          -0.0291
     11 C10        23.1998    18.6735    63.1692 C.ar       1          -0.1065
     12 C11        22.5475    17.4309    63.1411 C.ar       1          -0.0098
     13 C12        21.2143    17.3013    63.5670 C.ar       1          -0.1658
     14 C13        25.2051    20.0725    62.7654 C.2        1           0.2039
     15 N1         26.3000    20.3572    63.4303 N.2        1          -0.2013
     16 N2         26.6551    21.6926    63.2119 N.pl3      1          -0.3258
     17 C14        27.8211    22.3638    63.7916 C.3        1           0.1226
     18 C15        29.0458    21.4547    63.6700 C.3        1          -0.1136
     19 C16        29.3123    21.1531    62.1938 C.3        1          -0.1484
     20 C17        30.2635    22.1557    64.2754 C.3        1          -0.1479
     21 C18        25.7476    22.2724    62.3759 C.ar       1           0.3890
     22 N3         25.6052    23.4898    61.8519 N.ar       1          -0.4814
     23 C19        24.5971    23.7628    61.0533 C.ar       1           0.4161
     24 N4         23.6818    22.8673    60.7276 N.ar       1          -0.5699
     25 H1         22.9573    23.1199    60.1339 H          1           0.4510
     26 C20        23.7374    21.6259    61.1995 C.ar       1           0.5624
     27 N5         22.7774    20.6938    60.8553 N.pl3      1          -0.7968
     28 C21        24.8003    21.2835    62.0518 C.ar       1          -0.3037
     29 H2         17.5470    13.9583    65.9797 H          1           0.0838
     30 H3         18.2015    15.5748    66.3359 H          1           0.0679
     31 H4         16.9730    15.3727    65.0639 H          1           0.0687
     32 H5         19.8066    14.2397    64.9981 H          1           0.0665
     33 H6         18.5781    14.0376    63.7260 H          1           0.0669
     34 H7         20.7985    13.9942    63.0450 H          1           0.1390
     35 H8         23.1054    14.1667    62.2878 H          1           0.1416
     36 H9         25.1102    15.5473    61.8783 H          1           0.1422
     37 H10        26.2122    17.7130    61.9391 H          1           0.1352
     38 H11        22.6826    19.5519    63.5258 H          1           0.1333
     39 H12        20.6719    18.1643    63.9238 H          1           0.1379
     40 H13        28.0062    23.2961    63.2580 H          1           0.1158
     41 H14        27.6312    22.5787    64.8432 H          1           0.1170
     42 H15        28.8605    20.5225    64.2036 H          1           0.0835
     43 H16        30.1848    20.5054    62.1072 H          1           0.0674
     44 H17        28.4448    20.6536    61.7625 H          1           0.0393
     45 H18        29.4974    22.0854    61.6601 H          1           0.0686
     46 H19        31.1358    21.5081    64.1887 H          1           0.0648
     47 H20        30.4486    23.0880    63.7416 H          1           0.0710
     48 H21        30.0735    22.3706    65.3270 H          1           0.0646
     49 H22        24.5136    24.7600    60.6471 H          1           0.2534
     50 H23        22.0511    20.9420    60.2623 H          1           0.4293
     51 H24        22.8298    19.7913    61.2066 H          1           0.4428
@<TRIPOS>BOND
     1    1    2 1
     2    1   29 1
     3    1   30 1
     4    1   31 1
     5    2    3 1
     6    2   32 1
     7    2   33 1
     8    3    4 1
     9    4   13 ar
    10    4    5 ar
    11    5    6 ar
    12    5   34 1
    13    6    7 ar
    14    6   35 1
    15    7   12 ar
    16    7    8 ar
    17    8    9 ar
    18    8   36 1
    19    9   10 ar
    20    9   37 1
    21   10   11 ar
    22   10   14 1
    23   11   12 ar
    24   11   38 1
    25   12   13 ar
    26   13   39 1
    27   14   28 1
    28   14   15 2
    29   15   16 1
    30   16   17 1
    31   16   21 1
    32   17   18 1
    33   17   40 1
    34   17   41 1
    35   18   19 1
    36   18   20 1
    37   18   42 1
    38   19   43 1
    39   19   44 1
    40   19   45 1
    41   20   46 1
    42   20   47 1
    43   20   48 1
    44   21   28 ar
    45   21   22 ar
    46   22   23 ar
    47   23   24 ar
    48   23   49 1
    49   24   25 1
    50   24   26 ar
    51   26   27 1
    52   26   28 ar
    53   27   50 1
    54   27   51 1
##########                 Name:                 1499
##########          Protonation:                  100
##########               SMILES:   c1ccc2cc(ccc2c1)c3c(c(n(n3)CC(F)(F)F)N)C(=O)N
##########            Long Name:   5-amino-3-(2-naphthyl)-1-(2,2,2-trifluoroethyl)pyrazole-4-carboxamide
##########          FlexRecCode: 1
##########               Number:                   98
##########   Ligand Source File: /raid1/people/rgc/Examples/tdt/part3/ligand22set/build/ligand22set-0000001.db2.g
##########           GlobalRank: 13
##########                 Rank:                    1
##########               Setnum:                   37
##########             Matchnum:                 4615
##########                Cloud:                    1
##########        Electrostatic:            -6.817492
##########        Van der Waals:           -36.027584
##########  Ligand Polar Desolv:             6.598567
########## Ligand Apolar Desolv:            -2.329823
##########      Internal Energy:             0.000000
##########      Receptor Energy: 0.0
########## Receptor Desolvation:             0.000000
########## Receptor Hydrophobic:             0.000000
##########         Total Energy: -38.58
##########        Ligand Charge:             0.000000
##########            Arbitrary:    +999.9990
##########     heavy atom count:   24
##########           pose count:   10
##########        Ligand Energy:             0.000000
# num electro vdwattr vdwrepu polsolv apolsol rdesolv rhydroe totalscore fullpol fullapo
#   1   -2.98   -4.34    2.18   -0.48    1.30    0.00    0.00      -4.32   -0.72    1.96
#   2    2.45   -2.55    0.55   -1.45   -0.33    0.00    0.00      -1.34   -2.31   -0.53
#   3   -2.71   -4.31    3.79    3.43    0.27    0.00    0.00       0.46    5.28    0.41
#   4   -0.93   -1.81    0.54    0.74   -0.23    0.00    0.00      -1.68    1.36   -0.42
#   5   -0.24   -1.72    0.52   -0.06   -0.95    0.00    0.00      -2.45   -0.13   -2.09
#   6    3.31   -2.16    0.82   -1.41    0.42    0.00    0.00       0.98   -3.06    0.91
#   7    0.57   -1.33    0.19    0.03    0.41    0.00    0.00      -0.12    0.08    1.02
#   8   -0.49   -0.78    0.09    0.14   -0.16    0.00    0.00      -1.20    0.39   -0.46
#   9   -3.30   -0.84    0.09    0.07   -0.03    0.00    0.00      -4.01    0.18   -0.07
#  10    0.64   -1.62    0.37    0.38   -0.23    0.00    0.00      -0.47    0.79   -0.48
#  11    1.54   -0.65    0.09   -0.04   -0.14    0.00    0.00       0.79   -0.14   -0.48
#  12    2.03   -0.49    0.02    0.08   -0.20    0.00    0.00       1.44    0.20   -0.47
#  13   -0.61   -1.56    0.27    0.52    0.51    0.00    0.00      -0.87    1.19    1.17
#  14    1.05   -1.63    0.35   -0.40   -0.36    0.00    0.00      -1.00   -0.84   -0.77
#  15   -0.25   -1.76    0.30    0.12   -0.21    0.00    0.00      -1.81    0.22   -0.40
#  16   -0.64   -2.17    0.61    0.14   -0.26    0.00    0.00      -2.32    0.24   -0.45
#  17   -0.63   -2.18    0.40    0.18   -0.26    0.00    0.00      -2.48    0.28   -0.40
#  18   -0.54   -3.05    0.77    0.08   -0.30    0.00    0.00      -3.03    0.13   -0.46
#  19   -0.66   -3.30    1.01   -0.03   -0.31    0.00    0.00      -3.28   -0.04   -0.47
#  20   -1.19   -2.61    1.10   -0.01   -0.30    0.00    0.00      -3.01   -0.02   -0.47
#  21   -1.49   -2.77    1.19    0.10   -0.28    0.00    0.00      -3.25    0.16   -0.46
#  22   -0.62   -2.49    0.68    0.15   -0.24    0.00    0.00      -2.52    0.25   -0.40
#  23   -1.58   -3.43    1.60    0.25   -0.26    0.00    0.00      -3.43    0.43   -0.45
#  24   -1.28   -2.81    1.51    0.35   -0.23    0.00    0.00      -2.46    0.64   -0.42
#  25    1.11   -0.12    0.01    0.59    0.41    0.00    0.00       1.99    0.87    0.60
#  26    0.92   -0.08    0.01    0.91    0.37    0.00    0.00       2.12    1.46    0.59
#  27   -2.93   -0.08    0.01    0.78    0.26    0.00    0.00      -1.96    1.77    0.58
#  28   -1.73   -0.02    0.00    0.83    0.15    0.00    0.00      -0.77    2.95    0.54
#  29   -0.72   -0.49    0.26    0.30   -0.07    0.00    0.00      -0.73    1.11   -0.28
#  30   -0.89   -0.15    0.01    0.31   -0.04    0.00    0.00      -0.77    1.96   -0.25
#  31    1.03   -0.72    0.66   -0.15   -0.13    0.00    0.00       0.70   -0.32   -0.28
#  32    0.17   -0.83    0.24    0.13   -0.18    0.00    0.00      -0.47    0.20   -0.28
#  33    0.06   -0.94    0.44    0.30   -0.17    0.00    0.00      -0.32    0.48   -0.28
#  34    1.24   -0.39    0.06    0.22   -0.14    0.00    0.00       0.99    0.45   -0.28
#  35    1.29   -0.66    0.31    0.07   -0.15    0.00    0.00       0.87    0.14   -0.28
#  36    1.20   -1.22    1.24   -0.17   -0.17    0.00    0.00       0.87   -0.27   -0.28
#  37    1.03   -0.65    0.40   -0.40   -0.10    0.00    0.00       0.28   -0.84   -0.21

@<TRIPOS>MOLECULE
             1499       100
   37    39     0     0     0



@<TRIPOS>ATOM
      1 N1         20.7951    12.1616    62.6812 N.am       1          -0.8462
      2 C1         21.2299    12.9037    63.7189 C.2        1           0.6121
      3 O1         21.2543    12.4283    64.8391 O.2        1          -0.5365
      4 C2         21.6733    14.2837    63.4984 C.2        1          -0.3552
      5 C3         22.9629    14.7082    63.1903 C.2        1           0.4215
      6 N2         24.0715    13.9012    63.0349 N.pl3      1          -0.8362
      7 N3         22.9321    16.0501    63.0715 N.pl3      1          -0.4021
      8 C4         24.0851    16.8955    62.7521 C.3        1           0.0957
      9 C5         23.6464    18.3606    62.7069 C.3        1           0.4347
     10 F1         23.1275    18.7307    63.9523 F          1          -0.1664
     11 F2         24.7476    19.1679    62.4019 F          1          -0.1726
     12 F3         22.6631    18.5229    61.7251 F          1          -0.1780
     13 N4         21.6334    16.5131    63.2987 N.2        1          -0.2729
     14 C6         20.8454    15.4945    63.5516 C.2        1           0.1962
     15 C7         19.3927    15.5558    63.8402 C.ar       1          -0.0230
     16 C8         18.9137    15.0880    65.0502 C.ar       1          -0.0643
     17 C9         17.5378    15.1490    65.3179 C.ar       1          -0.0563
     18 C10        17.0123    14.6839    66.5367 C.ar       1          -0.1003
     19 C11        15.6728    14.7580    66.7647 C.ar       1          -0.1180
     20 C12        14.8106    15.2886    65.8067 C.ar       1          -0.1106
     21 C13        15.2831    15.7482    64.6159 C.ar       1          -0.1088
     22 C14        16.6604    15.6893    64.3436 C.ar       1          -0.0409
     23 C15        17.1795    16.1566    63.1230 C.ar       1          -0.1038
     24 C16        18.5151    16.0938    62.8848 C.ar       1          -0.0918
     25 H1         20.4998    11.2494    62.8274 H          1           0.4026
     26 H2         20.7736    12.5412    61.7888 H          1           0.4024
     27 H3         23.9908    12.9404    63.1413 H          1           0.4234
     28 H4         24.9314    14.2947    62.8190 H          1           0.4050
     29 H5         24.8513    16.7691    63.5171 H          1           0.1491
     30 H6         24.4894    16.6072    61.7818 H          1           0.1337
     31 H7         19.5932    14.6786    65.7832 H          1           0.1345
     32 H8         17.6686    14.2698    67.2879 H          1           0.1285
     33 H9         15.2718    14.4002    67.7015 H          1           0.1244
     34 H10        13.7514    15.3353    66.0122 H          1           0.1243
     35 H11        14.6024    16.1563    63.8833 H          1           0.1287
     36 H12        16.5166    16.5693    62.3768 H          1           0.1324
     37 H13        18.9069    16.4584    61.9467 H          1           0.1346
@<TRIPOS>BOND
     1    1    2 am
     2    1   25 1
     3    1   26 1
     4    2    3 2
     5    2    4 1
     6    4   14 1
     7    4    5 2
     8    5    6 1
     9    5    7 1
    10    6   27 1
    11    6   28 1
    12    7    8 1
    13    7   13 1
    14    8    9 1
    15    8   29 1
    16    8   30 1
    17    9   10 1
    18    9   11 1
    19    9   12 1
    20   13   14 2
    21   14   15 1
    22   15   24 ar
    23   15   16 ar
    24   16   17 ar
    25   16   31 1
    26   17   22 ar
    27   17   18 ar
    28   18   19 ar
    29   18   32 1
    30   19   20 ar
    31   19   33 1
    32   20   21 ar
    33   20   34 1
    34   21   22 ar
    35   21   35 1
    36   22   23 ar
    37   23   24 ar
    38   23   36 1
    39   24   37 1
##########                 Name:                 1499
##########          Protonation:                  100
##########               SMILES:   c1ccc2cc(ccc2c1)c3c(c(n(n3)CC(F)(F)F)N)C(=O)N
##########            Long Name:   5-amino-3-(2-naphthyl)-1-(2,2,2-trifluoroethyl)pyrazole-4-carboxamide
##########          FlexRecCode: 1
##########               Number:                   98
##########   Ligand Source File: /raid1/people/rgc/Examples/tdt/part3/ligand22set/build/ligand22set-0000001.db2.g
##########           GlobalRank: 15
##########                 Rank:                    2
##########               Setnum:                    8
##########             Matchnum:                 4615
##########                Cloud:                    1
##########        Electrostatic:            -6.371964
##########        Van der Waals:           -35.169010
##########  Ligand Polar Desolv:             6.638226
########## Ligand Apolar Desolv:            -2.266982
##########      Internal Energy:             0.000000
##########      Receptor Energy: 0.0
########## Receptor Desolvation:             0.000000
########## Receptor Hydrophobic:             0.000000
##########         Total Energy: -37.17
##########        Ligand Charge:             0.000000
##########            Arbitrary:    +999.9990
##########     heavy atom count:   24
##########           pose count:   10
##########        Ligand Energy:             0.000000
# num electro vdwattr vdwrepu polsolv apolsol rdesolv rhydroe totalscore fullpol fullapo
#   1   -2.98   -4.34    2.18   -0.48    1.30    0.00    0.00      -4.32   -0.72    1.96
#   2    2.45   -2.55    0.55   -1.45   -0.33    0.00    0.00      -1.34   -2.31   -0.53
#   3   -2.71   -4.31    3.79    3.43    0.27    0.00    0.00       0.46    5.28    0.41
#   4   -0.93   -1.81    0.54    0.74   -0.23    0.00    0.00      -1.68    1.36   -0.42
#   5   -0.24   -1.72    0.52   -0.06   -0.95    0.00    0.00      -2.45   -0.13   -2.09
#   6    3.31   -2.16    0.82   -1.41    0.42    0.00    0.00       0.98   -3.06    0.91
#   7    0.57   -1.33    0.19    0.03    0.41    0.00    0.00      -0.12    0.08    1.02
#   8   -0.49   -0.78    0.09    0.14   -0.16    0.00    0.00      -1.20    0.39   -0.46
#   9   -3.90   -0.65    0.09    0.06   -0.02    0.00    0.00      -4.44    0.18   -0.07
#  10    2.18   -0.67    0.10    0.29   -0.18    0.00    0.00       1.73    0.79   -0.48
#  11    1.71   -0.35    0.01   -0.04   -0.13    0.00    0.00       1.21   -0.14   -0.48
#  12    1.23   -1.09    0.49    0.08   -0.18    0.00    0.00       0.52    0.20   -0.47
#  13   -0.61   -1.56    0.27    0.52    0.51    0.00    0.00      -0.87    1.19    1.17
#  14    1.05   -1.63    0.35   -0.40   -0.36    0.00    0.00      -1.00   -0.84   -0.77
#  15   -0.25   -1.76    0.30    0.12   -0.21    0.00    0.00      -1.81    0.22   -0.40
#  16   -0.64   -2.17    0.61    0.14   -0.26    0.00    0.00      -2.32    0.24   -0.45
#  17   -0.63   -2.18    0.40    0.18   -0.26    0.00    0.00      -2.48    0.28   -0.40
#  18   -0.54   -3.05    0.77    0.08   -0.30    0.00    0.00      -3.03    0.13   -0.46
#  19   -0.66   -3.30    1.01   -0.03   -0.31    0.00    0.00      -3.28   -0.04   -0.47
#  20   -1.19   -2.61    1.10   -0.01   -0.30    0.00    0.00      -3.01   -0.02   -0.47
#  21   -1.49   -2.77    1.19    0.10   -0.28    0.00    0.00      -3.25    0.16   -0.46
#  22   -0.62   -2.49    0.68    0.15   -0.24    0.00    0.00      -2.52    0.25   -0.40
#  23   -1.58   -3.43    1.60    0.25   -0.26    0.00    0.00      -3.43    0.43   -0.45
#  24   -1.28   -2.81    1.51    0.35   -0.23    0.00    0.00      -2.46    0.64   -0.42
#  25    1.11   -0.12    0.01    0.59    0.41    0.00    0.00       1.99    0.87    0.60
#  26    0.92   -0.08    0.01    0.91    0.37    0.00    0.00       2.12    1.46    0.59
#  27   -2.93   -0.08    0.01    0.78    0.26    0.00    0.00      -1.96    1.77    0.58
#  28   -1.73   -0.02    0.00    0.83    0.15    0.00    0.00      -0.77    2.95    0.54
#  29   -0.86   -0.31    0.05    0.31   -0.08    0.00    0.00      -0.88    1.11   -0.28
#  30   -0.63   -0.30    0.07    0.43   -0.05    0.00    0.00      -0.48    1.96   -0.25
#  31    1.03   -0.72    0.66   -0.15   -0.13    0.00    0.00       0.70   -0.32   -0.28
#  32    0.17   -0.83    0.24    0.13   -0.18    0.00    0.00      -0.47    0.20   -0.28
#  33    0.06   -0.94    0.44    0.30   -0.17    0.00    0.00      -0.32    0.48   -0.28
#  34    1.24   -0.39    0.06    0.22   -0.14    0.00    0.00       0.99    0.45   -0.28
#  35    1.29   -0.66    0.31    0.07   -0.15    0.00    0.00       0.87    0.14   -0.28
#  36    1.20   -1.22    1.24   -0.17   -0.17    0.00    0.00       0.87   -0.27   -0.28
#  37    1.03   -0.65    0.40   -0.40   -0.10    0.00    0.00       0.28   -0.84   -0.21

@<TRIPOS>MOLECULE
             1499       100
   37    39     0     0     0



@<TRIPOS>ATOM
      1 N1         20.7951    12.1616    62.6812 N.am       1          -0.8462
      2 C1         21.2299    12.9037    63.7189 C.2        1           0.6121
      3 O1         21.2543    12.4283    64.8391 O.2        1          -0.5365
      4 C2         21.6733    14.2837    63.4984 C.2        1          -0.3552
      5 C3         22.9629    14.7082    63.1903 C.2        1           0.4215
      6 N2         24.0715    13.9012    63.0349 N.pl3      1          -0.8362
      7 N3         22.9321    16.0501    63.0715 N.pl3      1          -0.4021
      8 C4         24.0851    16.8955    62.7521 C.3        1           0.0957
      9 C5         24.1933    17.0586    61.2346 C.3        1           0.4347
     10 F1         23.0269    17.6565    60.7456 F          1          -0.1664
     11 F2         25.2944    17.8658    60.9296 F          1          -0.1726
     12 F3         24.3574    15.8023    60.6412 F          1          -0.1780
     13 N4         21.6334    16.5131    63.2987 N.2        1          -0.2729
     14 C6         20.8454    15.4945    63.5516 C.2        1           0.1962
     15 C7         19.3927    15.5558    63.8402 C.ar       1          -0.0230
     16 C8         18.9137    15.0880    65.0502 C.ar       1          -0.0643
     17 C9         17.5378    15.1490    65.3179 C.ar       1          -0.0563
     18 C10        17.0123    14.6839    66.5367 C.ar       1          -0.1003
     19 C11        15.6728    14.7580    66.7647 C.ar       1          -0.1180
     20 C12        14.8106    15.2886    65.8067 C.ar       1          -0.1106
     21 C13        15.2831    15.7482    64.6159 C.ar       1          -0.1088
     22 C14        16.6604    15.6893    64.3436 C.ar       1          -0.0409
     23 C15        17.1795    16.1566    63.1230 C.ar       1          -0.1038
     24 C16        18.5151    16.0938    62.8848 C.ar       1          -0.0918
     25 H1         20.4998    11.2494    62.8274 H          1           0.4026
     26 H2         20.7736    12.5412    61.7888 H          1           0.4024
     27 H3         23.9908    12.9404    63.1413 H          1           0.4234
     28 H4         24.9314    14.2947    62.8190 H          1           0.4050
     29 H5         23.9573    17.8743    63.2145 H          1           0.1491
     30 H6         24.9939    16.4295    63.1332 H          1           0.1337
     31 H7         19.5932    14.6786    65.7832 H          1           0.1345
     32 H8         17.6686    14.2698    67.2879 H          1           0.1285
     33 H9         15.2718    14.4002    67.7015 H          1           0.1244
     34 H10        13.7514    15.3353    66.0122 H          1           0.1243
     35 H11        14.6024    16.1563    63.8833 H          1           0.1287
     36 H12        16.5166    16.5693    62.3768 H          1           0.1324
     37 H13        18.9069    16.4584    61.9467 H          1           0.1346
@<TRIPOS>BOND
     1    1    2 am
     2    1   25 1
     3    1   26 1
     4    2    3 2
     5    2    4 1
     6    4   14 1
     7    4    5 2
     8    5    6 1
     9    5    7 1
    10    6   27 1
    11    6   28 1
    12    7    8 1
    13    7   13 1
    14    8    9 1
    15    8   29 1
    16    8   30 1
    17    9   10 1
    18    9   11 1
    19    9   12 1
    20   13   14 2
    21   14   15 1
    22   15   24 ar
    23   15   16 ar
    24   16   17 ar
    25   16   31 1
    26   17   22 ar
    27   17   18 ar
    28   18   19 ar
    29   18   32 1
    30   19   20 ar
    31   19   33 1
    32   20   21 ar
    33   20   34 1
    34   21   22 ar
    35   21   35 1
    36   22   23 ar
    37   23   24 ar
    38   23   36 1
    39   24   37 1
##########                 Name:                 1499
##########          Protonation:                  100
##########               SMILES:   c1ccc2cc(ccc2c1)c3c(c(n(n3)CC(F)(F)F)N)C(=O)N
##########            Long Name:   5-amino-3-(2-naphthyl)-1-(2,2,2-trifluoroethyl)pyrazole-4-carboxamide
##########          FlexRecCode: 1
##########               Number:                   98
##########   Ligand Source File: /raid1/people/rgc/Examples/tdt/part3/ligand22set/build/ligand22set-0000001.db2.g
##########           GlobalRank: 15
##########                 Rank:                    3
##########               Setnum:                   29
##########             Matchnum:                 4615
##########                Cloud:                    1
##########        Electrostatic:            -6.032282
##########        Van der Waals:           -35.044937
##########  Ligand Polar Desolv:             6.599624
########## Ligand Apolar Desolv:            -2.278965
##########      Internal Energy:             0.000000
##########      Receptor Energy: 0.0
########## Receptor Desolvation:             0.000000
########## Receptor Hydrophobic:             0.000000
##########         Total Energy: -36.76
##########        Ligand Charge:             0.000000
##########            Arbitrary:    +999.9990
##########     heavy atom count:   24
##########           pose count:   10
##########        Ligand Energy:             0.000000
# num electro vdwattr vdwrepu polsolv apolsol rdesolv rhydroe totalscore fullpol fullapo
#   1   -2.98   -4.34    2.18   -0.48    1.30    0.00    0.00      -4.32   -0.72    1.96
#   2    2.45   -2.55    0.55   -1.45   -0.33    0.00    0.00      -1.34   -2.31   -0.53
#   3   -2.71   -4.31    3.79    3.43    0.27    0.00    0.00       0.46    5.28    0.41
#   4   -0.93   -1.81    0.54    0.74   -0.23    0.00    0.00      -1.68    1.36   -0.42
#   5   -0.24   -1.72    0.52   -0.06   -0.95    0.00    0.00      -2.45   -0.13   -2.09
#   6    3.31   -2.16    0.82   -1.41    0.42    0.00    0.00       0.98   -3.06    0.91
#   7    0.57   -1.33    0.19    0.03    0.41    0.00    0.00      -0.12    0.08    1.02
#   8   -0.49   -0.78    0.09    0.14   -0.16    0.00    0.00      -1.20    0.39   -0.46
#   9   -4.32   -0.57    0.03    0.06   -0.02    0.00    0.00      -4.82    0.18   -0.07
#  10    1.67   -0.58    0.03    0.33   -0.20    0.00    0.00       1.25    0.79   -0.48
#  11    1.96   -0.36    0.01   -0.04   -0.13    0.00    0.00       1.44   -0.14   -0.48
#  12    2.23   -0.90    0.28    0.07   -0.17    0.00    0.00       1.51    0.20   -0.47
#  13   -0.61   -1.56    0.27    0.52    0.51    0.00    0.00      -0.87    1.19    1.17
#  14    1.05   -1.63    0.35   -0.40   -0.36    0.00    0.00      -1.00   -0.84   -0.77
#  15   -0.25   -1.76    0.30    0.12   -0.21    0.00    0.00      -1.81    0.22   -0.40
#  16   -0.64   -2.17    0.61    0.14   -0.26    0.00    0.00      -2.32    0.24   -0.45
#  17   -0.63   -2.18    0.40    0.18   -0.26    0.00    0.00      -2.48    0.28   -0.40
#  18   -0.54   -3.05    0.77    0.08   -0.30    0.00    0.00      -3.03    0.13   -0.46
#  19   -0.66   -3.30    1.01   -0.03   -0.31    0.00    0.00      -3.28   -0.04   -0.47
#  20   -1.19   -2.61    1.10   -0.01   -0.30    0.00    0.00      -3.01   -0.02   -0.47
#  21   -1.49   -2.77    1.19    0.10   -0.28    0.00    0.00      -3.25    0.16   -0.46
#  22   -0.62   -2.49    0.68    0.15   -0.24    0.00    0.00      -2.52    0.25   -0.40
#  23   -1.58   -3.43    1.60    0.25   -0.26    0.00    0.00      -3.43    0.43   -0.45
#  24   -1.28   -2.81    1.51    0.35   -0.23    0.00    0.00      -2.46    0.64   -0.42
#  25    1.11   -0.12    0.01    0.59    0.41    0.00    0.00       1.99    0.87    0.60
#  26    0.92   -0.08    0.01    0.91    0.37    0.00    0.00       2.12    1.46    0.59
#  27   -2.93   -0.08    0.01    0.78    0.26    0.00    0.00      -1.96    1.77    0.58
#  28   -1.73   -0.02    0.00    0.83    0.15    0.00    0.00      -0.77    2.95    0.54
#  29   -0.76   -0.56    0.34    0.35   -0.09    0.00    0.00      -0.73    1.11   -0.28
#  30   -0.71   -0.17    0.01    0.32   -0.04    0.00    0.00      -0.58    1.96   -0.25
#  31    1.03   -0.72    0.66   -0.15   -0.13    0.00    0.00       0.70   -0.32   -0.28
#  32    0.17   -0.83    0.24    0.13   -0.18    0.00    0.00      -0.47    0.20   -0.28
#  33    0.06   -0.94    0.44    0.30   -0.17    0.00    0.00      -0.32    0.48   -0.28
#  34    1.24   -0.39    0.06    0.22   -0.14    0.00    0.00       0.99    0.45   -0.28
#  35    1.29   -0.66    0.31    0.07   -0.15    0.00    0.00       0.87    0.14   -0.28
#  36    1.20   -1.22    1.24   -0.17   -0.17    0.00    0.00       0.87   -0.27   -0.28
#  37    1.03   -0.65    0.40   -0.40   -0.10    0.00    0.00       0.28   -0.84   -0.21

@<TRIPOS>MOLECULE
             1499       100
   37    39     0     0     0



@<TRIPOS>ATOM
      1 N1         20.7951    12.1616    62.6812 N.am       1          -0.8462
      2 C1         21.2299    12.9037    63.7189 C.2        1           0.6121
      3 O1         21.2543    12.4283    64.8391 O.2        1          -0.5365
      4 C2         21.6733    14.2837    63.4984 C.2        1          -0.3552
      5 C3         22.9629    14.7082    63.1903 C.2        1           0.4215
      6 N2         24.0715    13.9012    63.0349 N.pl3      1          -0.8362
      7 N3         22.9321    16.0501    63.0715 N.pl3      1          -0.4021
      8 C4         24.0851    16.8955    62.7521 C.3        1           0.0957
      9 C5         23.6851    17.9249    61.6932 C.3        1           0.4347
     10 F1         22.6455    18.7209    62.1859 F          1          -0.1664
     11 F2         24.7863    18.7321    61.3882 F          1          -0.1726
     12 F3         23.2579    17.2628    60.5371 F          1          -0.1780
     13 N4         21.6334    16.5131    63.2987 N.2        1          -0.2729
     14 C6         20.8454    15.4945    63.5516 C.2        1           0.1962
     15 C7         19.3927    15.5558    63.8402 C.ar       1          -0.0230
     16 C8         18.9137    15.0880    65.0502 C.ar       1          -0.0643
     17 C9         17.5378    15.1490    65.3179 C.ar       1          -0.0563
     18 C10        17.0123    14.6839    66.5367 C.ar       1          -0.1003
     19 C11        15.6728    14.7580    66.7647 C.ar       1          -0.1180
     20 C12        14.8106    15.2886    65.8067 C.ar       1          -0.1106
     21 C13        15.2831    15.7482    64.6159 C.ar       1          -0.1088
     22 C14        16.6604    15.6893    64.3436 C.ar       1          -0.0409
     23 C15        17.1795    16.1566    63.1230 C.ar       1          -0.1038
     24 C16        18.5151    16.0938    62.8848 C.ar       1          -0.0918
     25 H1         20.4998    11.2494    62.8274 H          1           0.4026
     26 H2         20.7736    12.5412    61.7888 H          1           0.4024
     27 H3         23.9908    12.9404    63.1413 H          1           0.4234
     28 H4         24.9314    14.2947    62.8190 H          1           0.4050
     29 H5         24.4181    17.4114    63.6528 H          1           0.1491
     30 H6         24.8951    16.2753    62.3682 H          1           0.1337
     31 H7         19.5932    14.6786    65.7832 H          1           0.1345
     32 H8         17.6686    14.2698    67.2879 H          1           0.1285
     33 H9         15.2718    14.4002    67.7015 H          1           0.1244
     34 H10        13.7514    15.3353    66.0122 H          1           0.1243
     35 H11        14.6024    16.1563    63.8833 H          1           0.1287
     36 H12        16.5166    16.5693    62.3768 H          1           0.1324
     37 H13        18.9069    16.4584    61.9467 H          1           0.1346
@<TRIPOS>BOND
     1    1    2 am
     2    1   25 1
     3    1   26 1
     4    2    3 2
     5    2    4 1
     6    4   14 1
     7    4    5 2
     8    5    6 1
     9    5    7 1
    10    6   27 1
    11    6   28 1
    12    7    8 1
    13    7   13 1
    14    8    9 1
    15    8   29 1
    16    8   30 1
    17    9   10 1
    18    9   11 1
    19    9   12 1
    20   13   14 2
    21   14   15 1
    22   15   24 ar
    23   15   16 ar
    24   16   17 ar
    25   16   31 1
    26   17   22 ar
    27   17   18 ar
    28   18   19 ar
    29   18   32 1
    30   19   20 ar
    31   19   33 1
    32   20   21 ar
    33   20   34 1
    34   21   22 ar
    35   21   35 1
    36   22   23 ar
    37   23   24 ar
    38   23   36 1
    39   24   37 1
##########                 Name:                 1499
##########          Protonation:                  100
##########               SMILES:   c1ccc2cc(ccc2c1)c3c(c(n(n3)CC(F)(F)F)N)C(=O)N
##########            Long Name:   5-amino-3-(2-naphthyl)-1-(2,2,2-trifluoroethyl)pyrazole-4-carboxamide
##########          FlexRecCode: 1
##########               Number:                   98
##########   Ligand Source File: /raid1/people/rgc/Examples/tdt/part3/ligand22set/build/ligand22set-0000001.db2.g
##########           GlobalRank: 17
##########                 Rank:                    4
##########               Setnum:                   51
##########             Matchnum:                 4615
##########                Cloud:                    1
##########        Electrostatic:            -5.285597
##########        Van der Waals:           -32.487984
##########  Ligand Polar Desolv:             6.618420
########## Ligand Apolar Desolv:            -2.385623
##########      Internal Energy:             0.000000
##########      Receptor Energy: 0.0
########## Receptor Desolvation:             0.000000
########## Receptor Hydrophobic:             0.000000
##########         Total Energy: -33.54
##########        Ligand Charge:             0.000000
##########            Arbitrary:    +999.9990
##########     heavy atom count:   24
##########           pose count:   10
##########        Ligand Energy:             0.000000
# num electro vdwattr vdwrepu polsolv apolsol rdesolv rhydroe totalscore fullpol fullapo
#   1   -4.36   -5.73    8.94   -0.47    1.27    0.00    0.00      -0.35   -0.72    1.96
#   2    2.45   -2.55    0.55   -1.45   -0.33    0.00    0.00      -1.34   -2.31   -0.53
#   3   -1.94   -3.43    1.12    3.50    0.27    0.00    0.00      -0.48    5.28    0.41
#   4   -0.93   -1.81    0.54    0.74   -0.23    0.00    0.00      -1.68    1.36   -0.42
#   5   -0.24   -1.72    0.52   -0.06   -0.95    0.00    0.00      -2.45   -0.13   -2.09
#   6    3.31   -2.16    0.82   -1.41    0.42    0.00    0.00       0.98   -3.06    0.91
#   7    0.57   -1.33    0.19    0.03    0.41    0.00    0.00      -0.12    0.08    1.02
#   8   -0.49   -0.78    0.09    0.14   -0.16    0.00    0.00      -1.20    0.39   -0.46
#   9   -3.30   -0.84    0.09    0.07   -0.03    0.00    0.00      -4.01    0.18   -0.07
#  10    0.64   -1.62    0.37    0.38   -0.23    0.00    0.00      -0.47    0.79   -0.48
#  11    1.54   -0.65    0.09   -0.04   -0.14    0.00    0.00       0.79   -0.14   -0.48
#  12    2.03   -0.49    0.02    0.08   -0.20    0.00    0.00       1.44    0.20   -0.47
#  13   -0.61   -1.56    0.27    0.52    0.51    0.00    0.00      -0.87    1.19    1.17
#  14    1.05   -1.63    0.35   -0.40   -0.36    0.00    0.00      -1.00   -0.84   -0.77
#  15   -0.25   -1.76    0.30    0.12   -0.21    0.00    0.00      -1.81    0.22   -0.40
#  16   -0.64   -2.17    0.61    0.14   -0.26    0.00    0.00      -2.32    0.24   -0.45
#  17   -0.63   -2.18    0.40    0.18   -0.26    0.00    0.00      -2.48    0.28   -0.40
#  18   -0.54   -3.05    0.77    0.08   -0.30    0.00    0.00      -3.03    0.13   -0.46
#  19   -0.66   -3.30    1.01   -0.03   -0.31    0.00    0.00      -3.28   -0.04   -0.47
#  20   -1.19   -2.61    1.10   -0.01   -0.30    0.00    0.00      -3.01   -0.02   -0.47
#  21   -1.49   -2.77    1.19    0.10   -0.28    0.00    0.00      -3.25    0.16   -0.46
#  22   -0.62   -2.49    0.68    0.15   -0.24    0.00    0.00      -2.52    0.25   -0.40
#  23   -1.58   -3.43    1.60    0.25   -0.26    0.00    0.00      -3.43    0.43   -0.45
#  24   -1.28   -2.81    1.51    0.35   -0.23    0.00    0.00      -2.46    0.64   -0.42
#  25    1.79   -0.15    0.02    0.57    0.39    0.00    0.00       2.62    0.87    0.60
#  26    2.38   -0.15    0.05    0.86    0.35    0.00    0.00       3.49    1.46    0.59
#  27   -2.93   -0.08    0.01    0.78    0.26    0.00    0.00      -1.96    1.77    0.58
#  28   -1.73   -0.02    0.00    0.83    0.15    0.00    0.00      -0.77    2.95    0.54
#  29   -0.72   -0.49    0.26    0.30   -0.07    0.00    0.00      -0.73    1.11   -0.28
#  30   -0.89   -0.15    0.01    0.31   -0.04    0.00    0.00      -0.77    1.96   -0.25
#  31    1.03   -0.72    0.66   -0.15   -0.13    0.00    0.00       0.70   -0.32   -0.28
#  32    0.17   -0.83    0.24    0.13   -0.18    0.00    0.00      -0.47    0.20   -0.28
#  33    0.06   -0.94    0.44    0.30   -0.17    0.00    0.00      -0.32    0.48   -0.28
#  34    1.24   -0.39    0.06    0.22   -0.14    0.00    0.00       0.99    0.45   -0.28
#  35    1.29   -0.66    0.31    0.07   -0.15    0.00    0.00       0.87    0.14   -0.28
#  36    1.20   -1.22    1.24   -0.17   -0.17    0.00    0.00       0.87   -0.27   -0.28
#  37    1.03   -0.65    0.40   -0.40   -0.10    0.00    0.00       0.28   -0.84   -0.21

@<TRIPOS>MOLECULE
             1499       100
   37    39     0     0     0



@<TRIPOS>ATOM
      1 N1         21.2571    12.3774    64.9594 N.am       1          -0.8462
      2 C1         21.2299    12.9037    63.7189 C.2        1           0.6121
      3 O1         20.8372    12.2336    62.7819 O.2        1          -0.5365
      4 C2         21.6733    14.2837    63.4984 C.2        1          -0.3552
      5 C3         22.9629    14.7082    63.1903 C.2        1           0.4215
      6 N2         24.0715    13.9012    63.0349 N.pl3      1          -0.8362
      7 N3         22.9321    16.0501    63.0715 N.pl3      1          -0.4021
      8 C4         24.0851    16.8955    62.7521 C.3        1           0.0957
      9 C5         23.6464    18.3606    62.7069 C.3        1           0.4347
     10 F1         23.1275    18.7307    63.9523 F          1          -0.1664
     11 F2         24.7476    19.1679    62.4019 F          1          -0.1726
     12 F3         22.6631    18.5229    61.7251 F          1          -0.1780
     13 N4         21.6334    16.5131    63.2987 N.2        1          -0.2729
     14 C6         20.8454    15.4945    63.5516 C.2        1           0.1962
     15 C7         19.3927    15.5558    63.8402 C.ar       1          -0.0230
     16 C8         18.9137    15.0880    65.0502 C.ar       1          -0.0643
     17 C9         17.5378    15.1490    65.3179 C.ar       1          -0.0563
     18 C10        17.0123    14.6839    66.5367 C.ar       1          -0.1003
     19 C11        15.6728    14.7580    66.7647 C.ar       1          -0.1180
     20 C12        14.8106    15.2886    65.8067 C.ar       1          -0.1106
     21 C13        15.2831    15.7482    64.6159 C.ar       1          -0.1088
     22 C14        16.6604    15.6893    64.3436 C.ar       1          -0.0409
     23 C15        17.1795    16.1566    63.1230 C.ar       1          -0.1038
     24 C16        18.5151    16.0938    62.8848 C.ar       1          -0.0918
     25 H1         20.9655    11.4637    65.1050 H          1           0.4026
     26 H2         21.5718    12.9108    65.7058 H          1           0.4024
     27 H3         23.9908    12.9404    63.1413 H          1           0.4234
     28 H4         24.9314    14.2947    62.8190 H          1           0.4050
     29 H5         24.8513    16.7691    63.5171 H          1           0.1491
     30 H6         24.4894    16.6072    61.7818 H          1           0.1337
     31 H7         19.5932    14.6786    65.7832 H          1           0.1345
     32 H8         17.6686    14.2698    67.2879 H          1           0.1285
     33 H9         15.2718    14.4002    67.7015 H          1           0.1244
     34 H10        13.7514    15.3353    66.0122 H          1           0.1243
     35 H11        14.6024    16.1563    63.8833 H          1           0.1287
     36 H12        16.5166    16.5693    62.3768 H          1           0.1324
     37 H13        18.9069    16.4584    61.9467 H          1           0.1346
@<TRIPOS>BOND
     1    1    2 am
     2    1   25 1
     3    1   26 1
     4    2    3 2
     5    2    4 1
     6    4   14 1
     7    4    5 2
     8    5    6 1
     9    5    7 1
    10    6   27 1
    11    6   28 1
    12    7    8 1
    13    7   13 1
    14    8    9 1
    15    8   29 1
    16    8   30 1
    17    9   10 1
    18    9   11 1
    19    9   12 1
    20   13   14 2
    21   14   15 1
    22   15   24 ar
    23   15   16 ar
    24   16   17 ar
    25   16   31 1
    26   17   22 ar
    27   17   18 ar
    28   18   19 ar
    29   18   32 1
    30   19   20 ar
    31   19   33 1
    32   20   21 ar
    33   20   34 1
    34   21   22 ar
    35   21   35 1
    36   22   23 ar
    37   23   24 ar
    38   23   36 1
    39   24   37 1
##########                 Name:                 1499
##########          Protonation:                  100
##########               SMILES:   c1ccc2cc(ccc2c1)c3c(c(n(n3)CC(F)(F)F)N)C(=O)N
##########            Long Name:   5-amino-3-(2-naphthyl)-1-(2,2,2-trifluoroethyl)pyrazole-4-carboxamide
##########          FlexRecCode: 1
##########               Number:                   98
##########   Ligand Source File: /raid1/people/rgc/Examples/tdt/part3/ligand22set/build/ligand22set-0000001.db2.g
##########           GlobalRank: 17
##########                 Rank:                    5
##########               Setnum:                   37
##########             Matchnum:                 5714
##########                Cloud:                    1
##########        Electrostatic:            -6.008132
##########        Van der Waals:           -31.453545
##########  Ligand Polar Desolv:             6.430903
########## Ligand Apolar Desolv:            -2.294564
##########      Internal Energy:             0.000000
##########      Receptor Energy: 0.0
########## Receptor Desolvation:             0.000000
########## Receptor Hydrophobic:             0.000000
##########         Total Energy: -33.33
##########        Ligand Charge:             0.000000
##########            Arbitrary:    +999.9990
##########     heavy atom count:   24
##########           pose count:   10
##########        Ligand Energy:             0.000000
# num electro vdwattr vdwrepu polsolv apolsol rdesolv rhydroe totalscore fullpol fullapo
#   1   -3.93   -4.75    2.94   -0.48    1.30    0.00    0.00      -4.91   -0.72    1.96
#   2    2.53   -2.66    0.65   -1.44   -0.33    0.00    0.00      -1.26   -2.31   -0.53
#   3   -2.92   -4.75    5.22    3.37    0.26    0.00    0.00       1.19    5.28    0.41
#   4   -0.82   -1.81    0.48    0.72   -0.22    0.00    0.00      -1.65    1.36   -0.42
#   5   -0.34   -1.68    0.39   -0.06   -0.94    0.00    0.00      -2.62   -0.13   -2.09
#   6    3.00   -2.05    0.63   -1.37    0.41    0.00    0.00       0.62   -3.06    0.91
#   7    0.73   -1.31    0.17    0.03    0.41    0.00    0.00       0.03    0.08    1.02
#   8   -0.52   -0.80    0.12    0.13   -0.16    0.00    0.00      -1.23    0.39   -0.46
#   9   -3.48   -0.81    0.09    0.07   -0.03    0.00    0.00      -4.16    0.18   -0.07
#  10    0.75   -1.52    0.33    0.37   -0.22    0.00    0.00      -0.30    0.79   -0.48
#  11    1.55   -0.60    0.07   -0.04   -0.14    0.00    0.00       0.85   -0.14   -0.48
#  12    2.12   -0.47    0.01    0.08   -0.19    0.00    0.00       1.55    0.20   -0.47
#  13   -0.37   -1.49    0.24    0.52    0.51    0.00    0.00      -0.60    1.19    1.17
#  14    0.90   -1.62    0.37   -0.39   -0.36    0.00    0.00      -1.10   -0.84   -0.77
#  15   -0.23   -1.71    0.28    0.12   -0.21    0.00    0.00      -1.75    0.22   -0.40
#  16   -0.63   -2.20    0.72    0.14   -0.26    0.00    0.00      -2.23    0.24   -0.45
#  17   -0.64   -2.12    0.39    0.18   -0.25    0.00    0.00      -2.45    0.28   -0.40
#  18   -0.62   -2.90    0.67    0.08   -0.30    0.00    0.00      -3.06    0.13   -0.46
#  19   -0.73   -3.15    0.96   -0.03   -0.30    0.00    0.00      -3.25   -0.04   -0.47
#  20   -1.21   -2.78    1.70   -0.01   -0.29    0.00    0.00      -2.60   -0.02   -0.47
#  21   -1.45   -2.97    1.54    0.09   -0.27    0.00    0.00      -3.06    0.16   -0.46
#  22   -0.60   -2.51    0.73    0.15   -0.24    0.00    0.00      -2.47    0.25   -0.40
#  23   -1.45   -3.60    2.15    0.25   -0.26    0.00    0.00      -2.90    0.43   -0.45
#  24   -1.09   -2.66    1.18    0.34   -0.23    0.00    0.00      -2.45    0.64   -0.42
#  25    2.20   -0.14    0.02    0.58    0.40    0.00    0.00       3.05    0.87    0.60
#  26    0.95   -0.08    0.01    0.90    0.36    0.00    0.00       2.15    1.46    0.59
#  27   -2.51   -0.06    0.01    0.75    0.25    0.00    0.00      -1.57    1.77    0.58
#  28   -1.49   -0.02    0.00    0.78    0.14    0.00    0.00      -0.59    2.95    0.54
#  29   -0.83   -0.60    0.50    0.30   -0.08    0.00    0.00      -0.70    1.11   -0.28
#  30   -0.88   -0.15    0.01    0.29   -0.04    0.00    0.00      -0.76    1.96   -0.25
#  31    1.05   -0.79    0.95   -0.14   -0.13    0.00    0.00       0.95   -0.32   -0.28
#  32    0.33   -0.78    0.21    0.13   -0.18    0.00    0.00      -0.30    0.20   -0.28
#  33    0.19   -0.81    0.26    0.29   -0.17    0.00    0.00      -0.24    0.48   -0.28
#  34    1.26   -0.41    0.10    0.21   -0.13    0.00    0.00       1.02    0.45   -0.28
#  35    1.24   -0.72    0.34    0.08   -0.15    0.00    0.00       0.79    0.14   -0.28
#  36    1.18   -1.55    3.41   -0.17   -0.17    0.00    0.00       2.70   -0.27   -0.28
#  37    0.76   -0.62    0.35   -0.38   -0.10    0.00    0.00       0.00   -0.84   -0.21

@<TRIPOS>MOLECULE
             1499       100
   37    39     0     0     0



@<TRIPOS>ATOM
      1 N1         21.1328    12.1134    62.8481 N.am       1          -0.8462
      2 C1         21.5089    12.9273    63.8544 C.2        1           0.6121
      3 O1         21.5062    12.5189    65.0009 O.2        1          -0.5365
      4 C2         21.9211    14.3048    63.5679 C.2        1          -0.3552
      5 C3         23.2086    14.7494    63.2797 C.2        1           0.4215
      6 N2         24.3443    13.9684    63.2106 N.pl3      1          -0.8362
      7 N3         23.1445    16.0805    63.0807 N.pl3      1          -0.4021
      8 C4         24.2842    16.9402    62.7517 C.3        1           0.0957
      9 C5         23.8065    18.3863    62.6047 C.3        1           0.4347
     10 F1         23.2329    18.8125    63.8074 F          1          -0.1664
     11 F2         24.8950    19.2073    62.2905 F          1          -0.1726
     12 F3         22.8551    18.4615    61.5818 F          1          -0.1780
     13 N4         21.8260    16.5166    63.2353 N.2        1          -0.2729
     14 C6         21.0583    15.4913    63.5208 C.2        1           0.1962
     15 C7         19.5949    15.5255    63.7552 C.ar       1          -0.0230
     16 C8         19.0859    15.1147    64.9736 C.ar       1          -0.0643
     17 C9         17.7000    15.1497    65.1898 C.ar       1          -0.0563
     18 C10        17.1442    14.7408    66.4152 C.ar       1          -0.1003
     19 C11        15.7957    14.7877    66.5921 C.ar       1          -0.1180
     20 C12        14.9541    15.2354    65.5754 C.ar       1          -0.1106
     21 C13        15.4563    15.6390    64.3764 C.ar       1          -0.1088
     22 C14        16.8436    15.6057    64.1555 C.ar       1          -0.0409
     23 C15        17.3931    16.0166    62.9280 C.ar       1          -0.1038
     24 C16        18.7376    15.9803    62.7400 C.ar       1          -0.0918
     25 H1         20.8582    11.2027    63.0379 H          1           0.4026
     26 H2         21.1330    12.4395    61.9347 H          1           0.4024
     27 H3         24.2867    13.0134    63.3709 H          1           0.4234
     28 H4         25.2001    14.3744    63.0015 H          1           0.4050
     29 H5         25.0255    16.8817    63.5487 H          1           0.1491
     30 H6         24.7311    16.6082    61.8146 H          1           0.1337
     31 H7         19.7497    14.7692    65.7525 H          1           0.1345
     32 H8         17.7842    14.3910    67.2117 H          1           0.1285
     33 H9         15.3714    14.4731    67.5341 H          1           0.1244
     34 H10        13.8874    15.2621    65.7412 H          1           0.1243
     35 H11        14.7913    15.9831    63.5979 H          1           0.1287
     36 H12        16.7463    16.3650    62.1363 H          1           0.1324
     37 H13        19.1527    16.3013    61.7960 H          1           0.1346
@<TRIPOS>BOND
     1    1    2 am
     2    1   25 1
     3    1   26 1
     4    2    3 2
     5    2    4 1
     6    4   14 1
     7    4    5 2
     8    5    6 1
     9    5    7 1
    10    6   27 1
    11    6   28 1
    12    7    8 1
    13    7   13 1
    14    8    9 1
    15    8   29 1
    16    8   30 1
    17    9   10 1
    18    9   11 1
    19    9   12 1
    20   13   14 2
    21   14   15 1
    22   15   24 ar
    23   15   16 ar
    24   16   17 ar
    25   16   31 1
    26   17   22 ar
    27   17   18 ar
    28   18   19 ar
    29   18   32 1
    30   19   20 ar
    31   19   33 1
    32   20   21 ar
    33   20   34 1
    34   21   22 ar
    35   21   35 1
    36   22   23 ar
    37   23   24 ar
    38   23   36 1
    39   24   37 1
##########                 Name:                 1499
##########          Protonation:                  100
##########               SMILES:   c1ccc2cc(ccc2c1)c3c(c(n(n3)CC(F)(F)F)N)C(=O)N
##########            Long Name:   5-amino-3-(2-naphthyl)-1-(2,2,2-trifluoroethyl)pyrazole-4-carboxamide
##########          FlexRecCode: 1
##########               Number:                   97
##########   Ligand Source File: /raid1/people/rgc/Examples/tdt/part3/ligand22set/build/ligand22set-0000001.db2.g
##########           GlobalRank: 20
##########                 Rank:                    1
##########               Setnum:                   51
##########             Matchnum:                18567
##########                Cloud:                    1
##########        Electrostatic:            -7.006456
##########        Van der Waals:           -28.924313
##########  Ligand Polar Desolv:             6.630004
########## Ligand Apolar Desolv:            -2.350019
##########      Internal Energy:             0.000000
##########      Receptor Energy: 0.0
########## Receptor Desolvation:             0.000000
########## Receptor Hydrophobic:             0.000000
##########         Total Energy: -31.65
##########        Ligand Charge:             0.000000
##########            Arbitrary:    +999.9990
##########     heavy atom count:   24
##########           pose count:   10
##########        Ligand Energy:             0.000000
# num electro vdwattr vdwrepu polsolv apolsol rdesolv rhydroe totalscore fullpol fullapo
#   1   -3.84   -4.68    2.67   -0.48    1.30    0.00    0.00      -5.02   -0.72    1.96
#   2    2.15   -2.75    0.81   -1.46   -0.34    0.00    0.00      -1.58   -2.31   -0.53
#   3   -1.52   -4.15    2.64    3.50    0.27    0.00    0.00       0.74    5.28    0.41
#   4   -0.81   -2.09    1.41    0.75   -0.23    0.00    0.00      -0.97    1.36   -0.42
#   5   -0.36   -1.89    0.99   -0.06   -0.95    0.00    0.00      -2.26   -0.13   -2.09
#   6    4.02   -2.47    1.40   -1.42    0.42    0.00    0.00       1.95   -3.06    0.91
#   7    0.50   -1.35    0.22    0.03    0.41    0.00    0.00      -0.18    0.08    1.02
#   8   -0.45   -0.83    0.11    0.14   -0.16    0.00    0.00      -1.19    0.39   -0.46
#   9   -2.80   -1.04    0.16    0.07   -0.03    0.00    0.00      -3.64    0.18   -0.07
#  10    0.38   -1.98    0.59    0.39   -0.24    0.00    0.00      -0.86    0.79   -0.48
#  11    1.36   -1.06    0.35   -0.05   -0.16    0.00    0.00       0.44   -0.14   -0.48
#  12    1.82   -0.53    0.02    0.08   -0.20    0.00    0.00       1.19    0.20   -0.47
#  13   -0.71   -1.56    0.27    0.52    0.51    0.00    0.00      -0.97    1.19    1.17
#  14    1.02   -1.62    0.38   -0.41   -0.38    0.00    0.00      -1.00   -0.84   -0.77
#  15   -0.24   -1.72    0.26    0.12   -0.21    0.00    0.00      -1.80    0.22   -0.40
#  16   -0.60   -1.94    0.36    0.14   -0.26    0.00    0.00      -2.31    0.24   -0.45
#  17   -0.60   -2.47    0.99    0.18   -0.25    0.00    0.00      -2.15    0.28   -0.40
#  18   -0.42   -3.74    2.59    0.08   -0.30    0.00    0.00      -1.78    0.13   -0.46
#  19   -0.59   -4.11    3.30   -0.03   -0.30    0.00    0.00      -1.72   -0.04   -0.47
#  20   -1.14   -3.32    4.33   -0.01   -0.29    0.00    0.00      -0.44   -0.02   -0.47
#  21   -1.39   -3.08    1.78    0.10   -0.27    0.00    0.00      -2.87    0.16   -0.46
#  22   -0.59   -2.72    0.92    0.15   -0.24    0.00    0.00      -2.48    0.25   -0.40
#  23   -1.51   -3.88    2.33    0.25   -0.27    0.00    0.00      -3.08    0.43   -0.45
#  24   -1.25   -3.10    1.97    0.35   -0.23    0.00    0.00      -2.25    0.64   -0.42
#  25    0.93   -0.15    0.02    0.58    0.40    0.00    0.00       1.76    0.87    0.60
#  26    2.13   -0.09    0.01    0.84    0.34    0.00    0.00       3.24    1.46    0.59
#  27   -4.01   -0.13    0.04    0.80    0.26    0.00    0.00      -3.03    1.77    0.58
#  28   -1.95   -0.02    0.00    0.87    0.16    0.00    0.00      -0.94    2.95    0.54
#  29   -0.57   -0.51    0.25    0.31   -0.08    0.00    0.00      -0.59    1.11   -0.28
#  30   -0.88   -0.15    0.01    0.31   -0.04    0.00    0.00      -0.76    1.96   -0.25
#  31    0.90   -0.52    0.26   -0.14   -0.12    0.00    0.00       0.37   -0.32   -0.28
#  32   -0.24   -0.93    0.74    0.12   -0.17    0.00    0.00      -0.48    0.20   -0.28
#  33    0.07   -1.02    0.76    0.29   -0.17    0.00    0.00      -0.07    0.48   -0.28
#  34    1.19   -0.43    0.15    0.21   -0.13    0.00    0.00       0.99    0.45   -0.28
#  35    1.04   -0.84    0.67    0.08   -0.15    0.00    0.00       0.79    0.14   -0.28
#  36    0.97   -1.43    1.81   -0.17   -0.18    0.00    0.00       0.99   -0.27   -0.28
#  37    0.98   -0.71    0.52   -0.40   -0.10    0.00    0.00       0.30   -0.84   -0.21

@<TRIPOS>MOLECULE
             1499       100
   37    39     0     0     0



@<TRIPOS>ATOM
      1 N1         21.0260    12.1157    64.3527 N.am       1          -0.8462
      2 C1         21.0540    12.8110    63.1983 C.2        1           0.6121
      3 O1         20.6769    12.2901    62.1650 O.2        1          -0.5365
      4 C2         21.5387    14.1946    63.1875 C.2        1          -0.3552
      5 C3         22.8482    14.6200    62.9812 C.2        1           0.4215
      6 N2         23.9410    13.8105    62.7473 N.pl3      1          -0.8362
      7 N3         22.8547    15.9657    63.0515 N.pl3      1          -0.4021
      8 C4         24.0385    16.8133    62.8891 C.3        1           0.0957
      9 C5         23.6380    18.2826    63.0372 C.3        1           0.4347
     10 F1         23.0865    18.4899    64.3060 F          1          -0.1664
     11 F2         24.7686    19.0919    62.8821 F          1          -0.1726
     12 F3         22.6928    18.6093    62.0588 F          1          -0.1780
     13 N4         21.5609    16.4301    63.3023 N.2        1          -0.2729
     14 C6         20.7398    15.4098    63.3856 C.2        1           0.1962
     15 C7         19.2801    15.4727    63.6361 C.ar       1          -0.0230
     16 C8         18.7489    14.8545    64.7533 C.ar       1          -0.0643
     17 C9         17.3666    14.9178    64.9855 C.ar       1          -0.0563
     18 C10        16.7888    14.3025    66.1103 C.ar       1          -0.1003
     19 C11        15.4445    14.3832    66.3060 C.ar       1          -0.1180
     20 C12        14.6287    15.0675    65.4067 C.ar       1          -0.1106
     21 C13        15.1526    15.6751    64.3071 C.ar       1          -0.1088
     22 C14        16.5365    15.6144    64.0708 C.ar       1          -0.0409
     23 C15        17.1081    16.2324    62.9443 C.ar       1          -0.1038
     24 C16        18.4490    16.1644    62.7400 C.ar       1          -0.0918
     25 H1         20.7072    11.1997    64.3595 H          1           0.4026
     26 H2         21.3285    12.5302    65.1759 H          1           0.4024
     27 H3         23.8329    12.8471    62.7150 H          1           0.4234
     28 H4         24.8173    14.2050    62.6149 H          1           0.4050
     29 H5         24.7750    16.5587    63.6513 H          1           0.1491
     30 H6         24.4681    16.6517    61.9005 H          1           0.1337
     31 H7         19.3928    14.3269    65.4415 H          1           0.1345
     32 H8         17.4087    13.7683    66.8152 H          1           0.1285
     33 H9         15.0033    13.9098    67.1706 H          1           0.1244
     34 H10        13.5647    15.1161    65.5848 H          1           0.1243
     35 H11        14.5075    16.2013    63.6191 H          1           0.1287
     36 H12        16.4813    16.7646    62.2439 H          1           0.1324
     37 H13        18.8814    16.6449    61.8747 H          1           0.1346
@<TRIPOS>BOND
     1    1    2 am
     2    1   25 1
     3    1   26 1
     4    2    3 2
     5    2    4 1
     6    4   14 1
     7    4    5 2
     8    5    6 1
     9    5    7 1
    10    6   27 1
    11    6   28 1
    12    7    8 1
    13    7   13 1
    14    8    9 1
    15    8   29 1
    16    8   30 1
    17    9   10 1
    18    9   11 1
    19    9   12 1
    20   13   14 2
    21   14   15 1
    22   15   24 ar
    23   15   16 ar
    24   16   17 ar
    25   16   31 1
    26   17   22 ar
    27   17   18 ar
    28   18   19 ar
    29   18   32 1
    30   19   20 ar
    31   19   33 1
    32   20   21 ar
    33   20   34 1
    34   21   22 ar
    35   21   35 1
    36   22   23 ar
    37   23   24 ar
    38   23   36 1
    39   24   37 1
##########                 Name:                 1499
##########          Protonation:                  100
##########               SMILES:   c1ccc2cc(ccc2c1)c3c(c(n(n3)CC(F)(F)F)N)C(=O)N
##########            Long Name:   5-amino-3-(2-naphthyl)-1-(2,2,2-trifluoroethyl)pyrazole-4-carboxamide
##########          FlexRecCode: 1
##########               Number:                   97
##########   Ligand Source File: /raid1/people/rgc/Examples/tdt/part3/ligand22set/build/ligand22set-0000001.db2.g
##########           GlobalRank: 20
##########                 Rank:                    2
##########               Setnum:                   37
##########             Matchnum:                18567
##########                Cloud:                    1
##########        Electrostatic:            -7.841002
##########        Van der Waals:           -28.068356
##########  Ligand Polar Desolv:             6.766587
########## Ligand Apolar Desolv:            -2.288505
##########      Internal Energy:             0.000000
##########      Receptor Energy: 0.0
########## Receptor Desolvation:             0.000000
########## Receptor Hydrophobic:             0.000000
##########         Total Energy: -31.43
##########        Ligand Charge:             0.000000
##########            Arbitrary:    +999.9990
##########     heavy atom count:   24
##########           pose count:   10
##########        Ligand Energy:             0.000000
# num electro vdwattr vdwrepu polsolv apolsol rdesolv rhydroe totalscore fullpol fullapo
#   1   -2.34   -5.22    4.87   -0.48    1.30    0.00    0.00      -1.86   -0.72    1.96
#   2    2.15   -2.75    0.81   -1.46   -0.34    0.00    0.00      -1.58   -2.31   -0.53
#   3   -2.41   -3.67    1.35    3.50    0.27    0.00    0.00      -0.96    5.28    0.41
#   4   -0.81   -2.09    1.41    0.75   -0.23    0.00    0.00      -0.97    1.36   -0.42
#   5   -0.36   -1.89    0.99   -0.06   -0.95    0.00    0.00      -2.26   -0.13   -2.09
#   6    4.02   -2.47    1.40   -1.42    0.42    0.00    0.00       1.95   -3.06    0.91
#   7    0.50   -1.35    0.22    0.03    0.41    0.00    0.00      -0.18    0.08    1.02
#   8   -0.45   -0.83    0.11    0.14   -0.16    0.00    0.00      -1.19    0.39   -0.46
#   9   -2.80   -1.04    0.16    0.07   -0.03    0.00    0.00      -3.64    0.18   -0.07
#  10    0.38   -1.98    0.59    0.39   -0.24    0.00    0.00      -0.86    0.79   -0.48
#  11    1.36   -1.06    0.35   -0.05   -0.16    0.00    0.00       0.44   -0.14   -0.48
#  12    1.82   -0.53    0.02    0.08   -0.20    0.00    0.00       1.19    0.20   -0.47
#  13   -0.71   -1.56    0.27    0.52    0.51    0.00    0.00      -0.97    1.19    1.17
#  14    1.02   -1.62    0.38   -0.41   -0.38    0.00    0.00      -1.00   -0.84   -0.77
#  15   -0.24   -1.72    0.26    0.12   -0.21    0.00    0.00      -1.80    0.22   -0.40
#  16   -0.60   -1.94    0.36    0.14   -0.26    0.00    0.00      -2.31    0.24   -0.45
#  17   -0.60   -2.47    0.99    0.18   -0.25    0.00    0.00      -2.15    0.28   -0.40
#  18   -0.42   -3.74    2.59    0.08   -0.30    0.00    0.00      -1.78    0.13   -0.46
#  19   -0.59   -4.11    3.30   -0.03   -0.30    0.00    0.00      -1.72   -0.04   -0.47
#  20   -1.14   -3.32    4.33   -0.01   -0.29    0.00    0.00      -0.44   -0.02   -0.47
#  21   -1.39   -3.08    1.78    0.10   -0.27    0.00    0.00      -2.87    0.16   -0.46
#  22   -0.59   -2.72    0.92    0.15   -0.24    0.00    0.00      -2.48    0.25   -0.40
#  23   -1.51   -3.88    2.33    0.25   -0.27    0.00    0.00      -3.08    0.43   -0.45
#  24   -1.25   -3.10    1.97    0.35   -0.23    0.00    0.00      -2.25    0.64   -0.42
#  25    0.90   -0.19    0.06    0.60    0.42    0.00    0.00       1.80    0.87    0.60
#  26    0.72   -0.18    0.09    0.95    0.38    0.00    0.00       1.97    1.46    0.59
#  27   -4.01   -0.13    0.04    0.80    0.26    0.00    0.00      -3.03    1.77    0.58
#  28   -1.95   -0.02    0.00    0.87    0.16    0.00    0.00      -0.94    2.95    0.54
#  29   -0.57   -0.51    0.25    0.31   -0.08    0.00    0.00      -0.59    1.11   -0.28
#  30   -0.88   -0.15    0.01    0.31   -0.04    0.00    0.00      -0.76    1.96   -0.25
#  31    0.90   -0.52    0.26   -0.14   -0.12    0.00    0.00       0.37   -0.32   -0.28
#  32   -0.24   -0.93    0.74    0.12   -0.17    0.00    0.00      -0.48    0.20   -0.28
#  33    0.07   -1.02    0.76    0.29   -0.17    0.00    0.00      -0.07    0.48   -0.28
#  34    1.19   -0.43    0.15    0.21   -0.13    0.00    0.00       0.99    0.45   -0.28
#  35    1.04   -0.84    0.67    0.08   -0.15    0.00    0.00       0.79    0.14   -0.28
#  36    0.97   -1.43    1.81   -0.17   -0.18    0.00    0.00       0.99   -0.27   -0.28
#  37    0.98   -0.71    0.52   -0.40   -0.10    0.00    0.00       0.30   -0.84   -0.21

@<TRIPOS>MOLECULE
             1499       100
   37    39     0     0     0



@<TRIPOS>ATOM
      1 N1         20.6364    12.2343    62.0539 N.am       1          -0.8462
      2 C1         21.0540    12.8110    63.1983 C.2        1           0.6121
      3 O1         21.0287    12.1831    64.2406 O.2        1          -0.5365
      4 C2         21.5387    14.1946    63.1875 C.2        1          -0.3552
      5 C3         22.8482    14.6200    62.9812 C.2        1           0.4215
      6 N2         23.9410    13.8105    62.7473 N.pl3      1          -0.8362
      7 N3         22.8547    15.9657    63.0515 N.pl3      1          -0.4021
      8 C4         24.0385    16.8133    62.8891 C.3        1           0.0957
      9 C5         23.6380    18.2826    63.0372 C.3        1           0.4347
     10 F1         23.0865    18.4899    64.3060 F          1          -0.1664
     11 F2         24.7686    19.0919    62.8821 F          1          -0.1726
     12 F3         22.6928    18.6093    62.0588 F          1          -0.1780
     13 N4         21.5609    16.4301    63.3023 N.2        1          -0.2729
     14 C6         20.7398    15.4098    63.3856 C.2        1           0.1962
     15 C7         19.2801    15.4727    63.6361 C.ar       1          -0.0230
     16 C8         18.7489    14.8545    64.7533 C.ar       1          -0.0643
     17 C9         17.3666    14.9178    64.9855 C.ar       1          -0.0563
     18 C10        16.7888    14.3025    66.1103 C.ar       1          -0.1003
     19 C11        15.4445    14.3832    66.3060 C.ar       1          -0.1180
     20 C12        14.6287    15.0675    65.4067 C.ar       1          -0.1106
     21 C13        15.1526    15.6751    64.3071 C.ar       1          -0.1088
     22 C14        16.5365    15.6144    64.0708 C.ar       1          -0.0409
     23 C15        17.1081    16.2324    62.9443 C.ar       1          -0.1038
     24 C16        18.4490    16.1644    62.7400 C.ar       1          -0.0918
     25 H1         20.3138    11.3196    62.0615 H          1           0.4026
     26 H2         20.6547    12.7354    61.2236 H          1           0.4024
     27 H3         23.8329    12.8471    62.7150 H          1           0.4234
     28 H4         24.8173    14.2050    62.6149 H          1           0.4050
     29 H5         24.7750    16.5587    63.6513 H          1           0.1491
     30 H6         24.4681    16.6517    61.9005 H          1           0.1337
     31 H7         19.3928    14.3269    65.4415 H          1           0.1345
     32 H8         17.4087    13.7683    66.8152 H          1           0.1285
     33 H9         15.0033    13.9098    67.1706 H          1           0.1244
     34 H10        13.5647    15.1161    65.5848 H          1           0.1243
     35 H11        14.5075    16.2013    63.6191 H          1           0.1287
     36 H12        16.4813    16.7646    62.2439 H          1           0.1324
     37 H13        18.8814    16.6449    61.8747 H          1           0.1346
@<TRIPOS>BOND
     1    1    2 am
     2    1   25 1
     3    1   26 1
     4    2    3 2
     5    2    4 1
     6    4   14 1
     7    4    5 2
     8    5    6 1
     9    5    7 1
    10    6   27 1
    11    6   28 1
    12    7    8 1
    13    7   13 1
    14    8    9 1
    15    8   29 1
    16    8   30 1
    17    9   10 1
    18    9   11 1
    19    9   12 1
    20   13   14 2
    21   14   15 1
    22   15   24 ar
    23   15   16 ar
    24   16   17 ar
    25   16   31 1
    26   17   22 ar
    27   17   18 ar
    28   18   19 ar
    29   18   32 1
    30   19   20 ar
    31   19   33 1
    32   20   21 ar
    33   20   34 1
    34   21   22 ar
    35   21   35 1
    36   22   23 ar
    37   23   24 ar
    38   23   36 1
    39   24   37 1
##########                 Name:                 1499
##########          Protonation:                  100
##########               SMILES:   c1ccc2cc(ccc2c1)c3c(c(n(n3)CC(F)(F)F)N)C(=O)N
##########            Long Name:   5-amino-3-(2-naphthyl)-1-(2,2,2-trifluoroethyl)pyrazole-4-carboxamide
##########          FlexRecCode: 1
##########               Number:                   97
##########   Ligand Source File: /raid1/people/rgc/Examples/tdt/part3/ligand22set/build/ligand22set-0000001.db2.g
##########           GlobalRank: 20
##########                 Rank:                    3
##########               Setnum:                   51
##########             Matchnum:                 4535
##########                Cloud:                    1
##########        Electrostatic:            -8.594498
##########        Van der Waals:           -26.660671
##########  Ligand Polar Desolv:             6.832215
########## Ligand Apolar Desolv:            -2.326195
##########      Internal Energy:             0.000000
##########      Receptor Energy: 0.0
########## Receptor Desolvation:             0.000000
########## Receptor Hydrophobic:             0.000000
##########         Total Energy: -30.75
##########        Ligand Charge:             0.000000
##########            Arbitrary:    +999.9990
##########     heavy atom count:   24
##########           pose count:   10
##########        Ligand Energy:             0.000000
# num electro vdwattr vdwrepu polsolv apolsol rdesolv rhydroe totalscore fullpol fullapo
#   1   -2.48   -4.98    3.01   -0.48    1.32    0.00    0.00      -3.61   -0.72    1.96
#   2    2.08   -2.83    0.78   -1.49   -0.34    0.00    0.00      -1.79   -2.31   -0.53
#   3   -1.45   -4.18    2.67    3.52    0.27    0.00    0.00       0.83    5.28    0.41
#   4   -0.92   -2.07    1.22    0.78   -0.24    0.00    0.00      -1.24    1.36   -0.42
#   5   -0.19   -1.97    0.93   -0.06   -0.99    0.00    0.00      -2.28   -0.13   -2.09
#   6    4.36   -3.37    3.67   -1.49    0.44    0.00    0.00       3.61   -3.06    0.91
#   7    0.27   -1.43    0.24    0.03    0.42    0.00    0.00      -0.46    0.08    1.02
#   8   -0.35   -0.94    0.16    0.14   -0.17    0.00    0.00      -1.15    0.39   -0.46
#   9   -2.36   -1.27    0.33    0.07   -0.03    0.00    0.00      -3.25    0.18   -0.07
#  10    0.19   -2.34    0.89    0.40   -0.24    0.00    0.00      -1.10    0.79   -0.48
#  11    1.47   -2.02    2.66   -0.05   -0.16    0.00    0.00       1.91   -0.14   -0.48
#  12    1.53   -0.52    0.02    0.08   -0.19    0.00    0.00       0.91    0.20   -0.47
#  13   -0.77   -1.61    0.30    0.52    0.51    0.00    0.00      -1.05    1.19    1.17
#  14    1.04   -1.61    0.36   -0.42   -0.39    0.00    0.00      -1.02   -0.84   -0.77
#  15   -0.25   -1.73    0.26    0.12   -0.21    0.00    0.00      -1.81    0.22   -0.40
#  16   -0.62   -1.94    0.35    0.14   -0.26    0.00    0.00      -2.33    0.24   -0.45
#  17   -0.64   -2.40    0.86    0.18   -0.25    0.00    0.00      -2.26    0.28   -0.40
#  18   -0.56   -3.49    2.05    0.08   -0.30    0.00    0.00      -2.22    0.13   -0.46
#  19   -0.83   -3.51    2.45   -0.02   -0.29    0.00    0.00      -2.21   -0.04   -0.47
#  20   -1.27   -2.65    1.64   -0.01   -0.30    0.00    0.00      -2.59   -0.02   -0.47
#  21   -1.44   -3.12    1.28    0.10   -0.28    0.00    0.00      -3.46    0.16   -0.46
#  22   -0.64   -2.71    0.75    0.15   -0.24    0.00    0.00      -2.68    0.25   -0.40
#  23   -1.62   -4.11    2.78    0.25   -0.27    0.00    0.00      -2.96    0.43   -0.45
#  24   -1.32   -3.22    2.53    0.35   -0.23    0.00    0.00      -1.88    0.64   -0.42
#  25   -1.32   -0.18    0.04    0.58    0.40    0.00    0.00      -0.49    0.87    0.60
#  26    1.81   -0.09    0.01    0.86    0.35    0.00    0.00       2.94    1.46    0.59
#  27   -3.86   -0.20    0.10    0.88    0.29    0.00    0.00      -2.78    1.77    0.58
#  28   -2.37   -0.03    0.00    0.97    0.18    0.00    0.00      -1.26    2.95    0.54
#  29   -0.33   -0.58    0.36    0.34   -0.09    0.00    0.00      -0.29    1.11   -0.28
#  30   -0.74   -0.16    0.01    0.33   -0.04    0.00    0.00      -0.60    1.96   -0.25
#  31    0.87   -0.49    0.19   -0.14   -0.12    0.00    0.00       0.32   -0.32   -0.28
#  32   -0.21   -0.90    0.81    0.12   -0.17    0.00    0.00      -0.36    0.20   -0.28
#  33    0.41   -0.80    0.40    0.27   -0.16    0.00    0.00       0.12    0.48   -0.28
#  34    1.29   -0.37    0.06    0.22   -0.13    0.00    0.00       1.06    0.45   -0.28
#  35    0.59   -1.47    4.39    0.08   -0.16    0.00    0.00       3.43    0.14   -0.28
#  36    1.01   -1.44    1.71   -0.17   -0.18    0.00    0.00       0.94   -0.27   -0.28
#  37    1.00   -0.66    0.46   -0.38   -0.10    0.00    0.00       0.32   -0.84   -0.21

@<TRIPOS>MOLECULE
             1499       100
   37    39     0     0     0



@<TRIPOS>ATOM
      1 N1         20.6698    11.9637    64.2898 N.am       1          -0.8462
      2 C1         20.7995    12.6970    63.1663 C.2        1           0.6121
      3 O1         20.4152    12.2513    62.1010 O.2        1          -0.5365
      4 C2         21.4035    14.0315    63.2276 C.2        1          -0.3552
      5 C3         22.7517    14.3465    63.0808 C.2        1           0.4215
      6 N2         23.7771    13.4526    62.8491 N.pl3      1          -0.8362
      7 N3         22.8734    15.6826    63.2063 N.pl3      1          -0.4021
      8 C4         24.1318    16.4272    63.1166 C.3        1           0.0957
      9 C5         23.8564    17.9196    63.3119 C.3        1           0.4347
     10 F1         23.2805    18.1269    64.5698 F          1          -0.1664
     11 F2         25.0583    18.6306    63.2263 F          1          -0.1726
     12 F3         22.9788    18.3658    62.3179 F          1          -0.1780
     13 N4         21.6171    16.2503    63.4343 N.2        1          -0.2729
     14 C6         20.7074    15.3045    63.4495 C.2        1           0.1962
     15 C7         19.2509    15.4873    63.6555 C.ar       1          -0.0230
     16 C8         18.6283    14.8768    64.7290 C.ar       1          -0.0643
     17 C9         17.2495    15.0538    64.9191 C.ar       1          -0.0563
     18 C10        16.5805    14.4500    65.9987 C.ar       1          -0.1003
     19 C11        15.2424    14.6423    66.1544 C.ar       1          -0.1180
     20 C12        14.5220    15.4300    65.2582 C.ar       1          -0.1106
     21 C13        15.1357    16.0299    64.2018 C.ar       1          -0.1088
     22 C14        16.5165    15.8556    64.0076 C.ar       1          -0.0409
     23 C15        17.1796    16.4626    62.9262 C.ar       1          -0.1038
     24 C16        18.5158    16.2835    62.7623 C.ar       1          -0.0918
     25 H1         20.2720    11.0800    64.2488 H          1           0.4026
     26 H2         20.9780    12.3181    65.1385 H          1           0.4024
     27 H3         23.5864    12.5045    62.7740 H          1           0.4234
     28 H4         24.6887    13.7724    62.7612 H          1           0.4050
     29 H5         24.8157    16.0795    63.8911 H          1           0.1491
     30 H6         24.5805    16.2657    62.1365 H          1           0.1337
     31 H7         19.1988    14.2684    65.4152 H          1           0.1345
     32 H8         17.1259    13.8365    66.7007 H          1           0.1285
     33 H9         14.7310    14.1776    66.9844 H          1           0.1244
     34 H10        13.4606    15.5661    65.4040 H          1           0.1243
     35 H11        14.5640    16.6371    63.5156 H          1           0.1287
     36 H12        16.6270    17.0745    62.2284 H          1           0.1324
     37 H13        19.0190    16.7561    61.9316 H          1           0.1346
@<TRIPOS>BOND
     1    1    2 am
     2    1   25 1
     3    1   26 1
     4    2    3 2
     5    2    4 1
     6    4   14 1
     7    4    5 2
     8    5    6 1
     9    5    7 1
    10    6   27 1
    11    6   28 1
    12    7    8 1
    13    7   13 1
    14    8    9 1
    15    8   29 1
    16    8   30 1
    17    9   10 1
    18    9   11 1
    19    9   12 1
    20   13   14 2
    21   14   15 1
    22   15   24 ar
    23   15   16 ar
    24   16   17 ar
    25   16   31 1
    26   17   22 ar
    27   17   18 ar
    28   18   19 ar
    29   18   32 1
    30   19   20 ar
    31   19   33 1
    32   20   21 ar
    33   20   34 1
    34   21   22 ar
    35   21   35 1
    36   22   23 ar
    37   23   24 ar
    38   23   36 1
    39   24   37 1
##########                 Name:                 1499
##########          Protonation:                  100
##########               SMILES:   c1ccc2cc(ccc2c1)c3c(c(n(n3)CC(F)(F)F)N)C(=O)N
##########            Long Name:   5-amino-3-(2-naphthyl)-1-(2,2,2-trifluoroethyl)pyrazole-4-carboxamide
##########          FlexRecCode: 1
##########               Number:                   97
##########   Ligand Source File: /raid1/people/rgc/Examples/tdt/part3/ligand22set/build/ligand22set-0000001.db2.g
##########           GlobalRank: 20
##########                 Rank:                    4
##########               Setnum:                   23
##########             Matchnum:                 4535
##########                Cloud:                    1
##########        Electrostatic:            -8.229559
##########        Van der Waals:           -26.553078
##########  Ligand Polar Desolv:             6.883049
########## Ligand Apolar Desolv:            -2.230343
##########      Internal Energy:             0.000000
##########      Receptor Energy: 0.0
########## Receptor Desolvation:             0.000000
########## Receptor Hydrophobic:             0.000000
##########         Total Energy: -30.13
##########        Ligand Charge:             0.000000
##########            Arbitrary:    +999.9990
##########     heavy atom count:   24
##########           pose count:   10
##########        Ligand Energy:             0.000000
# num electro vdwattr vdwrepu polsolv apolsol rdesolv rhydroe totalscore fullpol fullapo
#   1   -2.48   -4.98    3.01   -0.48    1.32    0.00    0.00      -3.61   -0.72    1.96
#   2    2.08   -2.83    0.78   -1.49   -0.34    0.00    0.00      -1.79   -2.31   -0.53
#   3   -1.45   -4.18    2.67    3.52    0.27    0.00    0.00       0.83    5.28    0.41
#   4   -0.92   -2.07    1.22    0.78   -0.24    0.00    0.00      -1.24    1.36   -0.42
#   5   -0.19   -1.97    0.93   -0.06   -0.99    0.00    0.00      -2.28   -0.13   -2.09
#   6    4.36   -3.37    3.67   -1.49    0.44    0.00    0.00       3.61   -3.06    0.91
#   7    0.27   -1.43    0.24    0.03    0.42    0.00    0.00      -0.46    0.08    1.02
#   8   -0.35   -0.94    0.16    0.14   -0.17    0.00    0.00      -1.15    0.39   -0.46
#   9   -3.21   -0.60    0.05    0.06   -0.02    0.00    0.00      -3.72    0.18   -0.07
#  10    1.83   -0.51    0.04    0.28   -0.17    0.00    0.00       1.47    0.79   -0.48
#  11    1.33   -0.35    0.02   -0.04   -0.12    0.00    0.00       0.84   -0.14   -0.48
#  12    1.12   -0.91    0.29    0.08   -0.18    0.00    0.00       0.41    0.20   -0.47
#  13   -0.77   -1.61    0.30    0.52    0.51    0.00    0.00      -1.05    1.19    1.17
#  14    1.04   -1.61    0.36   -0.42   -0.39    0.00    0.00      -1.02   -0.84   -0.77
#  15   -0.25   -1.73    0.26    0.12   -0.21    0.00    0.00      -1.81    0.22   -0.40
#  16   -0.62   -1.94    0.35    0.14   -0.26    0.00    0.00      -2.33    0.24   -0.45
#  17   -0.64   -2.40    0.86    0.18   -0.25    0.00    0.00      -2.26    0.28   -0.40
#  18   -0.56   -3.49    2.05    0.08   -0.30    0.00    0.00      -2.22    0.13   -0.46
#  19   -0.83   -3.51    2.45   -0.02   -0.29    0.00    0.00      -2.21   -0.04   -0.47
#  20   -1.27   -2.65    1.64   -0.01   -0.30    0.00    0.00      -2.59   -0.02   -0.47
#  21   -1.44   -3.12    1.28    0.10   -0.28    0.00    0.00      -3.46    0.16   -0.46
#  22   -0.64   -2.71    0.75    0.15   -0.24    0.00    0.00      -2.68    0.25   -0.40
#  23   -1.62   -4.11    2.78    0.25   -0.27    0.00    0.00      -2.96    0.43   -0.45
#  24   -1.32   -3.22    2.53    0.35   -0.23    0.00    0.00      -1.88    0.64   -0.42
#  25   -1.32   -0.18    0.04    0.58    0.40    0.00    0.00      -0.49    0.87    0.60
#  26    1.81   -0.09    0.01    0.86    0.35    0.00    0.00       2.94    1.46    0.59
#  27   -3.86   -0.20    0.10    0.88    0.29    0.00    0.00      -2.78    1.77    0.58
#  28   -2.37   -0.03    0.00    0.97    0.18    0.00    0.00      -1.26    2.95    0.54
#  29   -0.56   -0.48    0.17    0.36   -0.09    0.00    0.00      -0.60    1.11   -0.28
#  30   -0.39   -0.34    0.08    0.49   -0.06    0.00    0.00      -0.22    1.96   -0.25
#  31    0.87   -0.49    0.19   -0.14   -0.12    0.00    0.00       0.32   -0.32   -0.28
#  32   -0.21   -0.90    0.81    0.12   -0.17    0.00    0.00      -0.36    0.20   -0.28
#  33    0.41   -0.80    0.40    0.27   -0.16    0.00    0.00       0.12    0.48   -0.28
#  34    1.29   -0.37    0.06    0.22   -0.13    0.00    0.00       1.06    0.45   -0.28
#  35    0.59   -1.47    4.39    0.08   -0.16    0.00    0.00       3.43    0.14   -0.28
#  36    1.01   -1.44    1.71   -0.17   -0.18    0.00    0.00       0.94   -0.27   -0.28
#  37    1.00   -0.66    0.46   -0.38   -0.10    0.00    0.00       0.32   -0.84   -0.21

@<TRIPOS>MOLECULE
             1499       100
   37    39     0     0     0



@<TRIPOS>ATOM
      1 N1         20.6698    11.9637    64.2898 N.am       1          -0.8462
      2 C1         20.7995    12.6970    63.1663 C.2        1           0.6121
      3 O1         20.4152    12.2513    62.1010 O.2        1          -0.5365
      4 C2         21.4035    14.0315    63.2276 C.2        1          -0.3552
      5 C3         22.7517    14.3465    63.0808 C.2        1           0.4215
      6 N2         23.7771    13.4526    62.8491 N.pl3      1          -0.8362
      7 N3         22.8734    15.6826    63.2063 N.pl3      1          -0.4021
      8 C4         24.1318    16.4272    63.1166 C.3        1           0.0957
      9 C5         24.3794    16.8372    61.6635 C.3        1           0.4347
     10 F1         23.3268    17.6456    61.2212 F          1          -0.1664
     11 F2         25.5812    17.5483    61.5779 F          1          -0.1726
     12 F3         24.4567    15.6927    60.8627 F          1          -0.1780
     13 N4         21.6171    16.2503    63.4343 N.2        1          -0.2729
     14 C6         20.7074    15.3045    63.4495 C.2        1           0.1962
     15 C7         19.2509    15.4873    63.6555 C.ar       1          -0.0230
     16 C8         18.6283    14.8768    64.7290 C.ar       1          -0.0643
     17 C9         17.2495    15.0538    64.9191 C.ar       1          -0.0563
     18 C10        16.5805    14.4500    65.9987 C.ar       1          -0.1003
     19 C11        15.2424    14.6423    66.1544 C.ar       1          -0.1180
     20 C12        14.5220    15.4300    65.2582 C.ar       1          -0.1106
     21 C13        15.1357    16.0299    64.2018 C.ar       1          -0.1088
     22 C14        16.5165    15.8556    64.0076 C.ar       1          -0.0409
     23 C15        17.1796    16.4626    62.9262 C.ar       1          -0.1038
     24 C16        18.5158    16.2835    62.7623 C.ar       1          -0.0918
     25 H1         20.2720    11.0800    64.2488 H          1           0.4026
     26 H2         20.9780    12.3181    65.1385 H          1           0.4024
     27 H3         23.5864    12.5045    62.7740 H          1           0.4234
     28 H4         24.6887    13.7724    62.7612 H          1           0.4050
     29 H5         24.0716    17.3190    63.7405 H          1           0.1491
     30 H6         24.9520    15.7973    63.4612 H          1           0.1337
     31 H7         19.1988    14.2684    65.4152 H          1           0.1345
     32 H8         17.1259    13.8365    66.7007 H          1           0.1285
     33 H9         14.7310    14.1776    66.9844 H          1           0.1244
     34 H10        13.4606    15.5661    65.4040 H          1           0.1243
     35 H11        14.5640    16.6371    63.5156 H          1           0.1287
     36 H12        16.6270    17.0745    62.2284 H          1           0.1324
     37 H13        19.0190    16.7561    61.9316 H          1           0.1346
@<TRIPOS>BOND
     1    1    2 am
     2    1   25 1
     3    1   26 1
     4    2    3 2
     5    2    4 1
     6    4   14 1
     7    4    5 2
     8    5    6 1
     9    5    7 1
    10    6   27 1
    11    6   28 1
    12    7    8 1
    13    7   13 1
    14    8    9 1
    15    8   29 1
    16    8   30 1
    17    9   10 1
    18    9   11 1
    19    9   12 1
    20   13   14 2
    21   14   15 1
    22   15   24 ar
    23   15   16 ar
    24   16   17 ar
    25   16   31 1
    26   17   22 ar
    27   17   18 ar
    28   18   19 ar
    29   18   32 1
    30   19   20 ar
    31   19   33 1
    32   20   21 ar
    33   20   34 1
    34   21   22 ar
    35   21   35 1
    36   22   23 ar
    37   23   24 ar
    38   23   36 1
    39   24   37 1
##########                 Name:                 1499
##########          Protonation:                  100
##########               SMILES:   c1ccc2cc(ccc2c1)c3c(c(n(n3)CC(F)(F)F)N)C(=O)N
##########            Long Name:   5-amino-3-(2-naphthyl)-1-(2,2,2-trifluoroethyl)pyrazole-4-carboxamide
##########          FlexRecCode: 1
##########               Number:                   97
##########   Ligand Source File: /raid1/people/rgc/Examples/tdt/part3/ligand22set/build/ligand22set-0000001.db2.g
##########           GlobalRank: 20
##########                 Rank:                    5
##########               Setnum:                   43
##########             Matchnum:                 4535
##########                Cloud:                    1
##########        Electrostatic:            -8.003165
##########        Van der Waals:           -26.494709
##########  Ligand Polar Desolv:             6.843686
########## Ligand Apolar Desolv:            -2.240331
##########      Internal Energy:             0.000000
##########      Receptor Energy: 0.0
########## Receptor Desolvation:             0.000000
########## Receptor Hydrophobic:             0.000000
##########         Total Energy: -29.89
##########        Ligand Charge:             0.000000
##########            Arbitrary:    +999.9990
##########     heavy atom count:   24
##########           pose count:   10
##########        Ligand Energy:             0.000000
# num electro vdwattr vdwrepu polsolv apolsol rdesolv rhydroe totalscore fullpol fullapo
#   1   -2.48   -4.98    3.01   -0.48    1.32    0.00    0.00      -3.61   -0.72    1.96
#   2    2.08   -2.83    0.78   -1.49   -0.34    0.00    0.00      -1.79   -2.31   -0.53
#   3   -1.45   -4.18    2.67    3.52    0.27    0.00    0.00       0.83    5.28    0.41
#   4   -0.92   -2.07    1.22    0.78   -0.24    0.00    0.00      -1.24    1.36   -0.42
#   5   -0.19   -1.97    0.93   -0.06   -0.99    0.00    0.00      -2.28   -0.13   -2.09
#   6    4.36   -3.37    3.67   -1.49    0.44    0.00    0.00       3.61   -3.06    0.91
#   7    0.27   -1.43    0.24    0.03    0.42    0.00    0.00      -0.46    0.08    1.02
#   8   -0.35   -0.94    0.16    0.14   -0.17    0.00    0.00      -1.15    0.39   -0.46
#   9   -3.35   -0.63    0.04    0.06   -0.02    0.00    0.00      -3.90    0.18   -0.07
#  10    1.17   -0.67    0.04    0.32   -0.20    0.00    0.00       0.66    0.79   -0.48
#  11    1.51   -0.53    0.08   -0.04   -0.13    0.00    0.00       0.90   -0.14   -0.48
#  12    1.92   -0.63    0.10    0.07   -0.16    0.00    0.00       1.30    0.20   -0.47
#  13   -0.77   -1.61    0.30    0.52    0.51    0.00    0.00      -1.05    1.19    1.17
#  14    1.04   -1.61    0.36   -0.42   -0.39    0.00    0.00      -1.02   -0.84   -0.77
#  15   -0.25   -1.73    0.26    0.12   -0.21    0.00    0.00      -1.81    0.22   -0.40
#  16   -0.62   -1.94    0.35    0.14   -0.26    0.00    0.00      -2.33    0.24   -0.45
#  17   -0.64   -2.40    0.86    0.18   -0.25    0.00    0.00      -2.26    0.28   -0.40
#  18   -0.56   -3.49    2.05    0.08   -0.30    0.00    0.00      -2.22    0.13   -0.46
#  19   -0.83   -3.51    2.45   -0.02   -0.29    0.00    0.00      -2.21   -0.04   -0.47
#  20   -1.27   -2.65    1.64   -0.01   -0.30    0.00    0.00      -2.59   -0.02   -0.47
#  21   -1.44   -3.12    1.28    0.10   -0.28    0.00    0.00      -3.46    0.16   -0.46
#  22   -0.64   -2.71    0.75    0.15   -0.24    0.00    0.00      -2.68    0.25   -0.40
#  23   -1.62   -4.11    2.78    0.25   -0.27    0.00    0.00      -2.96    0.43   -0.45
#  24   -1.32   -3.22    2.53    0.35   -0.23    0.00    0.00      -1.88    0.64   -0.42
#  25   -1.32   -0.18    0.04    0.58    0.40    0.00    0.00      -0.49    0.87    0.60
#  26    1.81   -0.09    0.01    0.86    0.35    0.00    0.00       2.94    1.46    0.59
#  27   -3.86   -0.20    0.10    0.88    0.29    0.00    0.00      -2.78    1.77    0.58
#  28   -2.37   -0.03    0.00    0.97    0.18    0.00    0.00      -1.26    2.95    0.54
#  29   -0.33   -0.79    0.69    0.39   -0.10    0.00    0.00      -0.14    1.11   -0.28
#  30   -0.56   -0.19    0.01    0.38   -0.05    0.00    0.00      -0.41    1.96   -0.25
#  31    0.87   -0.49    0.19   -0.14   -0.12    0.00    0.00       0.32   -0.32   -0.28
#  32   -0.21   -0.90    0.81    0.12   -0.17    0.00    0.00      -0.36    0.20   -0.28
#  33    0.41   -0.80    0.40    0.27   -0.16    0.00    0.00       0.12    0.48   -0.28
#  34    1.29   -0.37    0.06    0.22   -0.13    0.00    0.00       1.06    0.45   -0.28
#  35    0.59   -1.47    4.39    0.08   -0.16    0.00    0.00       3.43    0.14   -0.28
#  36    1.01   -1.44    1.71   -0.17   -0.18    0.00    0.00       0.94   -0.27   -0.28
#  37    1.00   -0.66    0.46   -0.38   -0.10    0.00    0.00       0.32   -0.84   -0.21

@<TRIPOS>MOLECULE
             1499       100
   37    39     0     0     0



@<TRIPOS>ATOM
      1 N1         20.6698    11.9637    64.2898 N.am       1          -0.8462
      2 C1         20.7995    12.6970    63.1663 C.2        1           0.6121
      3 O1         20.4152    12.2513    62.1010 O.2        1          -0.5365
      4 C2         21.4035    14.0315    63.2276 C.2        1          -0.3552
      5 C3         22.7517    14.3465    63.0808 C.2        1           0.4215
      6 N2         23.7771    13.4526    62.8491 N.pl3      1          -0.8362
      7 N3         22.8734    15.6826    63.2063 N.pl3      1          -0.4021
      8 C4         24.1318    16.4272    63.1166 C.3        1           0.0957
      9 C5         23.9307    17.6651    62.2400 C.3        1           0.4347
     10 F1         22.9451    18.4814    62.8050 F          1          -0.1664
     11 F2         25.1325    18.3761    62.1544 F          1          -0.1726
     12 F3         23.5307    17.2695    60.9591 F          1          -0.1780
     13 N4         21.6171    16.2503    63.4343 N.2        1          -0.2729
     14 C6         20.7074    15.3045    63.4495 C.2        1           0.1962
     15 C7         19.2509    15.4873    63.6555 C.ar       1          -0.0230
     16 C8         18.6283    14.8768    64.7290 C.ar       1          -0.0643
     17 C9         17.2495    15.0538    64.9191 C.ar       1          -0.0563
     18 C10        16.5805    14.4500    65.9987 C.ar       1          -0.1003
     19 C11        15.2424    14.6423    66.1544 C.ar       1          -0.1180
     20 C12        14.5220    15.4300    65.2582 C.ar       1          -0.1106
     21 C13        15.1357    16.0299    64.2018 C.ar       1          -0.1088
     22 C14        16.5165    15.8556    64.0076 C.ar       1          -0.0409
     23 C15        17.1796    16.4626    62.9262 C.ar       1          -0.1038
     24 C16        18.5158    16.2835    62.7623 C.ar       1          -0.0918
     25 H1         20.2720    11.0800    64.2488 H          1           0.4026
     26 H2         20.9780    12.3181    65.1385 H          1           0.4024
     27 H3         23.5864    12.5045    62.7740 H          1           0.4234
     28 H4         24.6887    13.7724    62.7612 H          1           0.4050
     29 H5         24.4435    16.7356    64.1147 H          1           0.1491
     30 H6         24.8998    15.7911    62.6764 H          1           0.1337
     31 H7         19.1988    14.2684    65.4152 H          1           0.1345
     32 H8         17.1259    13.8365    66.7007 H          1           0.1285
     33 H9         14.7310    14.1776    66.9844 H          1           0.1244
     34 H10        13.4606    15.5661    65.4040 H          1           0.1243
     35 H11        14.5640    16.6371    63.5156 H          1           0.1287
     36 H12        16.6270    17.0745    62.2284 H          1           0.1324
     37 H13        19.0190    16.7561    61.9316 H          1           0.1346
@<TRIPOS>BOND
     1    1    2 am
     2    1   25 1
     3    1   26 1
     4    2    3 2
     5    2    4 1
     6    4   14 1
     7    4    5 2
     8    5    6 1
     9    5    7 1
    10    6   27 1
    11    6   28 1
    12    7    8 1
    13    7   13 1
    14    8    9 1
    15    8   29 1
    16    8   30 1
    17    9   10 1
    18    9   11 1
    19    9   12 1
    20   13   14 2
    21   14   15 1
    22   15   24 ar
    23   15   16 ar
    24   16   17 ar
    25   16   31 1
    26   17   22 ar
    27   17   18 ar
    28   18   19 ar
    29   18   32 1
    30   19   20 ar
    31   19   33 1
    32   20   21 ar
    33   20   34 1
    34   21   22 ar
    35   21   35 1
    36   22   23 ar
    37   23   24 ar
    38   23   36 1
    39   24   37 1
##########                 Name:                 1542
##########          Protonation:                   86
##########               SMILES:   CC(C)(C)Cn1c2c(c(n1)c3ccc4cc(ccc4c3)O)c(ncn2)N
##########            Long Name:   [4-amino-1-(2,2-dimethylpropyl)pyrazolo[3,4-d]pyrimidin-3-yl]naphthalen-2-ol
##########          FlexRecCode: 1
##########               Number:                   75
##########   Ligand Source File: /raid1/people/rgc/Examples/tdt/part3/ligand22set/build/ligand22set-0000001.db2.g
##########           GlobalRank: 14
##########                 Rank:                    1
##########               Setnum:                   10
##########             Matchnum:                43558
##########                Cloud:                    1
##########        Electrostatic:            -6.480247
##########        Van der Waals:           -32.576210
##########  Ligand Polar Desolv:             4.668722
########## Ligand Apolar Desolv:            -3.365576
##########      Internal Energy:             0.000000
##########      Receptor Energy: 0.0
########## Receptor Desolvation:             0.000000
########## Receptor Hydrophobic:             0.000000
##########         Total Energy: -37.75
##########        Ligand Charge:             0.000000
##########            Arbitrary:    +999.9990
##########     heavy atom count:   26
##########           pose count:    5
##########        Ligand Energy:             0.000000
# num electro vdwattr vdwrepu polsolv apolsol rdesolv rhydroe totalscore fullpol fullapo
#   1    2.22   -1.03    0.20    0.11   -0.07    0.00    0.00       1.42    0.24   -0.17
#   2    1.19   -0.59    0.03    0.02   -0.03    0.00    0.00       0.63    0.07   -0.08
#   3    1.56   -0.68    0.08    0.10   -0.05    0.00    0.00       1.02    0.31   -0.15
#   4    2.60   -0.71    0.09   -0.06   -0.06    0.00    0.00       1.86   -0.17   -0.17
#   5   -1.13   -0.77    0.06   -0.09   -0.15    0.00    0.00      -2.09   -0.25   -0.40
#   6    1.04   -1.24    0.11    0.70    0.36    0.00    0.00       0.97    1.67    0.85
#   7   -0.68   -2.09    0.83    0.60    0.48    0.00    0.00      -0.86    1.32    1.07
#   8    1.21   -1.86    0.51   -0.32   -0.35    0.00    0.00      -0.80   -0.69   -0.75
#   9   -0.85   -1.65    0.49    0.76   -0.20    0.00    0.00      -1.45    1.64   -0.44
#  10    1.50   -1.92    0.45   -0.89   -1.24    0.00    0.00      -2.10   -1.54   -2.15
#  11   -3.11   -2.16    0.34   -0.33    0.51    0.00    0.00      -4.75   -0.52    0.81
#  12   -0.29   -2.79    0.92    1.11    1.13    0.00    0.00       0.08    2.04    2.08
#  13   -1.21   -2.22    0.85   -0.45   -1.47    0.00    0.00      -4.50   -0.97   -3.16
#  14    1.44   -1.38    0.19    1.06    0.82    0.00    0.00       2.13    2.60    2.02
#  15   -0.42   -1.40    0.27   -0.76   -0.70    0.00    0.00      -3.00   -1.86   -1.71
#  16   -0.39   -2.20    0.85    0.04   -0.20    0.00    0.00      -1.89    0.07   -0.37
#  17   -1.56   -3.69    3.48   -0.03   -0.18    0.00    0.00      -1.98   -0.06   -0.32
#  18   -1.37   -4.05    2.48   -0.10   -0.27    0.00    0.00      -3.30   -0.16   -0.45
#  19   -0.42   -2.66    0.85    0.00   -0.24    0.00    0.00      -2.47    0.00   -0.40
#  20   -1.69   -3.31    3.16   -0.05   -0.27    0.00    0.00      -2.18   -0.09   -0.46
#  21    1.15   -3.34    3.93    0.00   -0.19    0.00    0.00       1.55    0.00   -0.31
#  22   -4.30   -2.30    1.04   -0.24    0.75    0.00    0.00      -5.05   -0.38    1.18
#  23   -0.72   -3.38    1.22   -0.02   -0.30    0.00    0.00      -3.19   -0.03   -0.46
#  24   -0.54   -2.86    0.65    0.00   -0.30    0.00    0.00      -3.05    0.00   -0.46
#  25   -0.75   -2.15    0.39    0.05   -0.25    0.00    0.00      -2.72    0.08   -0.40
#  26   -0.71   -2.21    0.64    0.06   -0.26    0.00    0.00      -2.48    0.11   -0.45
#  27   -0.86   -0.24    0.01   -0.03   -0.07    0.00    0.00      -1.19   -0.10   -0.23
#  28   -1.37   -0.52    0.17   -0.03   -0.12    0.00    0.00      -1.88   -0.07   -0.28
#  29   -0.58   -0.51    0.43   -0.03   -0.09    0.00    0.00      -0.78   -0.08   -0.28
#  30   -0.48   -0.11    0.00   -0.01   -0.03    0.00    0.00      -0.63   -0.12   -0.28
#  31   -0.53   -0.24    0.04   -0.04   -0.06    0.00    0.00      -0.82   -0.16   -0.28
#  32   -0.76   -0.39    0.12   -0.02   -0.07    0.00    0.00      -1.11   -0.06   -0.23
#  33   -0.76   -0.13    0.01    0.02   -0.04    0.00    0.00      -0.91    0.16   -0.28
#  34   -1.70   -0.58    0.76    0.04   -0.08    0.00    0.00      -1.56    0.13   -0.28
#  35   -1.29   -0.27    0.05    0.03   -0.07    0.00    0.00      -1.56    0.10   -0.28
#  36   -0.72   -0.33    0.10   -0.03   -0.07    0.00    0.00      -1.05   -0.13   -0.28
#  37   -0.78   -0.35    0.05   -0.02   -0.10    0.00    0.00      -1.21   -0.07   -0.28
#  38    1.93   -0.03    0.00    0.28    0.17    0.00    0.00       2.35    0.59    0.36
#  39    1.16   -0.05    0.00    0.70    0.36    0.00    0.00       2.18    1.16    0.59
#  40   -1.29   -0.59    0.57    0.15   -0.10    0.00    0.00      -1.26    0.41   -0.28
#  41    0.94   -0.94    1.23    0.10   -0.12    0.00    0.00       1.20    0.20   -0.24
#  42    0.86   -1.65    2.56    0.59   -0.18    0.00    0.00       2.17    0.91   -0.28
#  43    1.37   -0.66    0.27    0.23   -0.14    0.00    0.00       1.06    0.44   -0.28
#  44    2.85   -0.05    0.00    1.25    0.66    0.00    0.00       4.70    2.31    1.22
#  45   -0.01   -0.91    0.37    0.16   -0.17    0.00    0.00      -0.56    0.26   -0.28
#  46    0.47   -0.72    0.15    0.19   -0.17    0.00    0.00      -0.08    0.30   -0.28
#  47    1.29   -0.77    1.06   -0.10   -0.13    0.00    0.00       1.35   -0.23   -0.28

@<TRIPOS>MOLECULE
             1542        86
   47    50     0     0     0



@<TRIPOS>ATOM
      1 C1         22.2634    18.0469    60.4493 C.3        1          -0.1386
      2 C2         23.6082    18.4173    61.0781 C.3        1          -0.0860
      3 C3         24.6965    17.4866    60.5397 C.3        1          -0.1369
      4 C4         23.9547    19.8651    60.7252 C.3        1          -0.1391
      5 C5         23.5179    18.2706    62.5984 C.3        1           0.1479
      6 N1         22.5542    17.2185    62.9311 N.pl3      1          -0.3697
      7 N2         21.1838    17.4129    63.1340 N.2        1          -0.2297
      8 C6         20.6077    16.2678    63.4149 C.2        1           0.1644
      9 C7         21.6489    15.2405    63.4012 C.ar       1          -0.3252
     10 C8         21.6781    13.8529    63.6175 C.ar       1           0.5181
     11 N3         20.5233    13.1596    63.9246 N.pl3      1          -0.8292
     12 N4         22.8448    13.2233    63.5189 N.ar       1          -0.6052
     13 C9         23.9525    13.8811    63.2250 C.ar       1           0.3846
     14 N5         23.9732    15.1788    63.0149 N.ar       1          -0.5695
     15 C10        22.8527    15.8975    63.0855 C.ar       1           0.3797
     16 C11        19.1680    16.0547    63.6945 C.ar       1          -0.0261
     17 C12        18.2128    16.3813    62.7173 C.ar       1          -0.1056
     18 C13        16.8880    16.1953    62.9489 C.ar       1          -0.0984
     19 C14        16.4562    15.6695    64.1804 C.ar       1          -0.0281
     20 C15        15.0916    15.4678    64.4427 C.ar       1          -0.1383
     21 C16        14.7027    14.9552    65.6478 C.ar       1           0.1192
     22 O1         13.3817    14.7608    65.8988 O.3        1          -0.4994
     23 C17        15.6464    14.6276    66.6265 C.ar       1          -0.1379
     24 C18        16.9753    14.8109    66.4043 C.ar       1          -0.0820
     25 C19        17.4114    15.3363    65.1744 C.ar       1          -0.0599
     26 C20        18.7762    15.5309    64.9129 C.ar       1          -0.0581
     27 H1         21.4879    18.7099    60.8329 H          1           0.0549
     28 H2         22.3278    18.1513    59.3662 H          1           0.0579
     29 H3         22.0166    17.0154    60.7008 H          1           0.0559
     30 H4         25.6546    17.7505    60.9876 H          1           0.0553
     31 H5         24.4497    16.4552    60.7912 H          1           0.0646
     32 H6         24.7607    17.5911    59.4566 H          1           0.0477
     33 H7         24.9129    20.1290    61.1732 H          1           0.0590
     34 H8         24.0190    19.9698    59.6423 H          1           0.0604
     35 H9         23.1794    20.5281    61.1090 H          1           0.0635
     36 H10        24.4972    18.0053    62.9966 H          1           0.1000
     37 H11        23.1913    19.2140    63.0358 H          1           0.0962
     38 H12        19.6782    13.6310    63.9932 H          1           0.4136
     39 H13        20.5573    12.2014    64.0717 H          1           0.4107
     40 H14        24.8787    13.3303    63.1548 H          1           0.2040
     41 H15        18.5366    16.7857    61.7697 H          1           0.1331
     42 H16        16.1656    16.4515    62.1879 H          1           0.1370
     43 H17        14.3526    15.7172    63.6954 H          1           0.1369
     44 H18        13.1973    14.3951    66.7748 H          1           0.3944
     45 H19        15.3152    14.2236    67.5717 H          1           0.1332
     46 H20        17.6932    14.5542    67.1693 H          1           0.1356
     47 H21        19.5147    15.2775    65.6591 H          1           0.1355
@<TRIPOS>BOND
     1    1    2 1
     2    1   27 1
     3    1   28 1
     4    1   29 1
     5    2    3 1
     6    2    4 1
     7    2    5 1
     8    3   30 1
     9    3   31 1
    10    3   32 1
    11    4   33 1
    12    4   34 1
    13    4   35 1
    14    5    6 1
    15    5   36 1
    16    5   37 1
    17    6   15 1
    18    6    7 1
    19    7    8 2
    20    8    9 1
    21    8   16 1
    22    9   15 ar
    23    9   10 ar
    24   10   11 1
    25   10   12 ar
    26   11   38 1
    27   11   39 1
    28   12   13 ar
    29   13   14 ar
    30   13   40 1
    31   14   15 ar
    32   16   26 ar
    33   16   17 ar
    34   17   18 ar
    35   17   41 1
    36   18   19 ar
    37   18   42 1
    38   19   25 ar
    39   19   20 ar
    40   20   21 ar
    41   20   43 1
    42   21   22 1
    43   21   23 ar
    44   22   44 1
    45   23   24 ar
    46   23   45 1
    47   24   25 ar
    48   24   46 1
    49   25   26 ar
    50   26   47 1
##########                 Name:                 1542
##########          Protonation:                   86
##########               SMILES:   CC(C)(C)Cn1c2c(c(n1)c3ccc4cc(ccc4c3)O)c(ncn2)N
##########            Long Name:   [4-amino-1-(2,2-dimethylpropyl)pyrazolo[3,4-d]pyrimidin-3-yl]naphthalen-2-ol
##########          FlexRecCode: 1
##########               Number:                   75
##########   Ligand Source File: /raid1/people/rgc/Examples/tdt/part3/ligand22set/build/ligand22set-0000001.db2.g
##########           GlobalRank: 14
##########                 Rank:                    2
##########               Setnum:                    9
##########             Matchnum:                43558
##########                Cloud:                    1
##########        Electrostatic:            -5.786510
##########        Van der Waals:           -32.555286
##########  Ligand Polar Desolv:             4.462011
########## Ligand Apolar Desolv:            -3.474747
##########      Internal Energy:             0.000000
##########      Receptor Energy: 0.0
########## Receptor Desolvation:             0.000000
########## Receptor Hydrophobic:             0.000000
##########         Total Energy: -37.35
##########        Ligand Charge:             0.000000
##########            Arbitrary:    +999.9990
##########     heavy atom count:   26
##########           pose count:    5
##########        Ligand Energy:             0.000000
# num electro vdwattr vdwrepu polsolv apolsol rdesolv rhydroe totalscore fullpol fullapo
#   1    2.22   -1.03    0.20    0.11   -0.07    0.00    0.00       1.42    0.24   -0.17
#   2    1.19   -0.59    0.03    0.02   -0.03    0.00    0.00       0.63    0.07   -0.08
#   3    1.56   -0.68    0.08    0.10   -0.05    0.00    0.00       1.02    0.31   -0.15
#   4    2.60   -0.71    0.09   -0.06   -0.06    0.00    0.00       1.86   -0.17   -0.17
#   5   -1.13   -0.77    0.06   -0.09   -0.15    0.00    0.00      -2.09   -0.25   -0.40
#   6    1.04   -1.24    0.11    0.70    0.36    0.00    0.00       0.97    1.67    0.85
#   7   -0.68   -2.09    0.83    0.60    0.48    0.00    0.00      -0.86    1.32    1.07
#   8    1.21   -1.86    0.51   -0.32   -0.35    0.00    0.00      -0.80   -0.69   -0.75
#   9   -0.85   -1.65    0.49    0.76   -0.20    0.00    0.00      -1.45    1.64   -0.44
#  10    1.50   -1.92    0.45   -0.89   -1.24    0.00    0.00      -2.10   -1.54   -2.15
#  11   -3.11   -2.16    0.34   -0.33    0.51    0.00    0.00      -4.75   -0.52    0.81
#  12   -0.29   -2.79    0.92    1.11    1.13    0.00    0.00       0.08    2.04    2.08
#  13   -1.21   -2.22    0.85   -0.45   -1.47    0.00    0.00      -4.50   -0.97   -3.16
#  14    1.44   -1.38    0.19    1.06    0.82    0.00    0.00       2.13    2.60    2.02
#  15   -0.42   -1.40    0.27   -0.76   -0.70    0.00    0.00      -3.00   -1.86   -1.71
#  16   -0.39   -2.20    0.85    0.04   -0.20    0.00    0.00      -1.89    0.07   -0.37
#  17   -1.56   -3.69    3.48   -0.03   -0.18    0.00    0.00      -1.98   -0.06   -0.32
#  18   -1.37   -4.05    2.48   -0.10   -0.27    0.00    0.00      -3.30   -0.16   -0.45
#  19   -0.42   -2.66    0.85    0.00   -0.24    0.00    0.00      -2.47    0.00   -0.40
#  20   -1.69   -3.31    3.16   -0.05   -0.27    0.00    0.00      -2.18   -0.09   -0.46
#  21    1.15   -3.34    3.93    0.00   -0.19    0.00    0.00       1.55    0.00   -0.31
#  22   -4.30   -2.30    1.04   -0.24    0.75    0.00    0.00      -5.05   -0.38    1.18
#  23   -0.72   -3.38    1.22   -0.02   -0.30    0.00    0.00      -3.19   -0.03   -0.46
#  24   -0.54   -2.86    0.65    0.00   -0.30    0.00    0.00      -3.05    0.00   -0.46
#  25   -0.75   -2.15    0.39    0.05   -0.25    0.00    0.00      -2.72    0.08   -0.40
#  26   -0.71   -2.21    0.64    0.06   -0.26    0.00    0.00      -2.48    0.11   -0.45
#  27   -0.86   -0.24    0.01   -0.03   -0.07    0.00    0.00      -1.19   -0.10   -0.23
#  28   -1.37   -0.52    0.17   -0.03   -0.12    0.00    0.00      -1.88   -0.07   -0.28
#  29   -0.58   -0.51    0.43   -0.03   -0.09    0.00    0.00      -0.78   -0.08   -0.28
#  30   -0.48   -0.11    0.00   -0.01   -0.03    0.00    0.00      -0.63   -0.12   -0.28
#  31   -0.53   -0.24    0.04   -0.04   -0.06    0.00    0.00      -0.82   -0.16   -0.28
#  32   -0.76   -0.39    0.12   -0.02   -0.07    0.00    0.00      -1.11   -0.06   -0.23
#  33   -0.76   -0.13    0.01    0.02   -0.04    0.00    0.00      -0.91    0.16   -0.28
#  34   -1.70   -0.58    0.76    0.04   -0.08    0.00    0.00      -1.56    0.13   -0.28
#  35   -1.29   -0.27    0.05    0.03   -0.07    0.00    0.00      -1.56    0.10   -0.28
#  36   -0.72   -0.33    0.10   -0.03   -0.07    0.00    0.00      -1.05   -0.13   -0.28
#  37   -0.78   -0.35    0.05   -0.02   -0.10    0.00    0.00      -1.21   -0.07   -0.28
#  38    1.93   -0.03    0.00    0.28    0.17    0.00    0.00       2.35    0.59    0.36
#  39    1.16   -0.05    0.00    0.70    0.36    0.00    0.00       2.18    1.16    0.59
#  40   -1.29   -0.59    0.57    0.15   -0.10    0.00    0.00      -1.26    0.41   -0.28
#  41    0.94   -0.94    1.23    0.10   -0.12    0.00    0.00       1.20    0.20   -0.24
#  42    0.86   -1.65    2.56    0.59   -0.18    0.00    0.00       2.17    0.91   -0.28
#  43    1.37   -0.66    0.27    0.23   -0.14    0.00    0.00       1.06    0.44   -0.28
#  44    3.54   -0.03    0.00    1.04    0.55    0.00    0.00       5.10    2.31    1.22
#  45   -0.01   -0.91    0.37    0.16   -0.17    0.00    0.00      -0.56    0.26   -0.28
#  46    0.47   -0.72    0.15    0.19   -0.17    0.00    0.00      -0.08    0.30   -0.28
#  47    1.29   -0.77    1.06   -0.10   -0.13    0.00    0.00       1.35   -0.23   -0.28

@<TRIPOS>MOLECULE
             1542        86
   47    50     0     0     0



@<TRIPOS>ATOM
      1 C1         22.2634    18.0469    60.4493 C.3        1          -0.1386
      2 C2         23.6082    18.4173    61.0781 C.3        1          -0.0860
      3 C3         24.6965    17.4866    60.5397 C.3        1          -0.1369
      4 C4         23.9547    19.8651    60.7252 C.3        1          -0.1391
      5 C5         23.5179    18.2706    62.5984 C.3        1           0.1479
      6 N1         22.5542    17.2185    62.9311 N.pl3      1          -0.3697
      7 N2         21.1838    17.4129    63.1340 N.2        1          -0.2297
      8 C6         20.6077    16.2678    63.4149 C.2        1           0.1644
      9 C7         21.6489    15.2405    63.4012 C.ar       1          -0.3252
     10 C8         21.6781    13.8529    63.6175 C.ar       1           0.5181
     11 N3         20.5233    13.1596    63.9246 N.pl3      1          -0.8292
     12 N4         22.8448    13.2233    63.5189 N.ar       1          -0.6052
     13 C9         23.9525    13.8811    63.2250 C.ar       1           0.3846
     14 N5         23.9732    15.1788    63.0149 N.ar       1          -0.5695
     15 C10        22.8527    15.8975    63.0855 C.ar       1           0.3797
     16 C11        19.1680    16.0547    63.6945 C.ar       1          -0.0261
     17 C12        18.2128    16.3813    62.7173 C.ar       1          -0.1056
     18 C13        16.8880    16.1953    62.9489 C.ar       1          -0.0984
     19 C14        16.4562    15.6695    64.1804 C.ar       1          -0.0281
     20 C15        15.0916    15.4678    64.4427 C.ar       1          -0.1383
     21 C16        14.7027    14.9552    65.6478 C.ar       1           0.1192
     22 O1         13.3817    14.7608    65.8988 O.3        1          -0.4994
     23 C17        15.6464    14.6276    66.6265 C.ar       1          -0.1379
     24 C18        16.9753    14.8109    66.4043 C.ar       1          -0.0820
     25 C19        17.4114    15.3363    65.1744 C.ar       1          -0.0599
     26 C20        18.7762    15.5309    64.9129 C.ar       1          -0.0581
     27 H1         21.4879    18.7099    60.8329 H          1           0.0549
     28 H2         22.3278    18.1513    59.3662 H          1           0.0579
     29 H3         22.0166    17.0154    60.7008 H          1           0.0559
     30 H4         25.6546    17.7505    60.9876 H          1           0.0553
     31 H5         24.4497    16.4552    60.7912 H          1           0.0646
     32 H6         24.7607    17.5911    59.4566 H          1           0.0477
     33 H7         24.9129    20.1290    61.1732 H          1           0.0590
     34 H8         24.0190    19.9698    59.6423 H          1           0.0604
     35 H9         23.1794    20.5281    61.1090 H          1           0.0635
     36 H10        24.4972    18.0053    62.9966 H          1           0.1000
     37 H11        23.1913    19.2140    63.0358 H          1           0.0962
     38 H12        19.6782    13.6310    63.9932 H          1           0.4136
     39 H13        20.5573    12.2014    64.0717 H          1           0.4107
     40 H14        24.8787    13.3303    63.1548 H          1           0.2040
     41 H15        18.5366    16.7857    61.7697 H          1           0.1331
     42 H16        16.1656    16.4515    62.1879 H          1           0.1370
     43 H17        14.3526    15.7172    63.6954 H          1           0.1369
     44 H18        12.8010    15.0139    65.1680 H          1           0.3944
     45 H19        15.3152    14.2236    67.5717 H          1           0.1332
     46 H20        17.6932    14.5542    67.1693 H          1           0.1356
     47 H21        19.5147    15.2775    65.6591 H          1           0.1355
@<TRIPOS>BOND
     1    1    2 1
     2    1   27 1
     3    1   28 1
     4    1   29 1
     5    2    3 1
     6    2    4 1
     7    2    5 1
     8    3   30 1
     9    3   31 1
    10    3   32 1
    11    4   33 1
    12    4   34 1
    13    4   35 1
    14    5    6 1
    15    5   36 1
    16    5   37 1
    17    6   15 1
    18    6    7 1
    19    7    8 2
    20    8    9 1
    21    8   16 1
    22    9   15 ar
    23    9   10 ar
    24   10   11 1
    25   10   12 ar
    26   11   38 1
    27   11   39 1
    28   12   13 ar
    29   13   14 ar
    30   13   40 1
    31   14   15 ar
    32   16   26 ar
    33   16   17 ar
    34   17   18 ar
    35   17   41 1
    36   18   19 ar
    37   18   42 1
    38   19   25 ar
    39   19   20 ar
    40   20   21 ar
    41   20   43 1
    42   21   22 1
    43   21   23 ar
    44   22   44 1
    45   23   24 ar
    46   23   45 1
    47   24   25 ar
    48   24   46 1
    49   25   26 ar
    50   26   47 1
##########                 Name:                 1542
##########          Protonation:                   86
##########               SMILES:   CC(C)(C)Cn1c2c(c(n1)c3ccc4cc(ccc4c3)O)c(ncn2)N
##########            Long Name:   [4-amino-1-(2,2-dimethylpropyl)pyrazolo[3,4-d]pyrimidin-3-yl]naphthalen-2-ol
##########          FlexRecCode: 1
##########               Number:                   75
##########   Ligand Source File: /raid1/people/rgc/Examples/tdt/part3/ligand22set/build/ligand22set-0000001.db2.g
##########           GlobalRank: 15
##########                 Rank:                    3
##########               Setnum:                   10
##########             Matchnum:                43519
##########                Cloud:                    1
##########        Electrostatic:            -6.280502
##########        Van der Waals:           -30.799644
##########  Ligand Polar Desolv:             4.621942
########## Ligand Apolar Desolv:            -3.362540
##########      Internal Energy:             0.000000
##########      Receptor Energy: 0.0
########## Receptor Desolvation:             0.000000
########## Receptor Hydrophobic:             0.000000
##########         Total Energy: -35.82
##########        Ligand Charge:             0.000000
##########            Arbitrary:    +999.9990
##########     heavy atom count:   26
##########           pose count:    5
##########        Ligand Energy:             0.000000
# num electro vdwattr vdwrepu polsolv apolsol rdesolv rhydroe totalscore fullpol fullapo
#   1    2.23   -1.22    0.39    0.10   -0.07    0.00    0.00       1.43    0.24   -0.17
#   2    1.20   -0.62    0.04    0.02   -0.03    0.00    0.00       0.62    0.07   -0.08
#   3    1.46   -0.72    0.10    0.10   -0.05    0.00    0.00       0.90    0.31   -0.15
#   4    2.75   -0.80    0.18   -0.06   -0.06    0.00    0.00       2.02   -0.17   -0.17
#   5   -1.20   -0.70    0.05   -0.09   -0.15    0.00    0.00      -2.09   -0.25   -0.40
#   6    1.23   -1.19    0.10    0.69    0.35    0.00    0.00       1.18    1.67    0.85
#   7   -0.42   -1.88    0.59    0.59    0.48    0.00    0.00      -0.63    1.32    1.07
#   8    1.13   -1.82    0.48   -0.32   -0.34    0.00    0.00      -0.87   -0.69   -0.75
#   9   -0.83   -1.64    0.46    0.75   -0.20    0.00    0.00      -1.45    1.64   -0.44
#  10    1.58   -1.91    0.40   -0.88   -1.23    0.00    0.00      -2.05   -1.54   -2.15
#  11   -3.25   -2.19    0.42   -0.32    0.51    0.00    0.00      -4.83   -0.52    0.81
#  12   -0.57   -2.79    0.91    1.11    1.13    0.00    0.00      -0.20    2.04    2.08
#  13   -1.04   -2.27    0.84   -0.45   -1.47    0.00    0.00      -4.39   -0.97   -3.16
#  14    1.38   -1.40    0.20    1.07    0.83    0.00    0.00       2.07    2.60    2.02
#  15   -0.46   -1.39    0.27   -0.76   -0.70    0.00    0.00      -3.04   -1.86   -1.71
#  16   -0.39   -2.29    1.05    0.04   -0.19    0.00    0.00      -1.78    0.07   -0.37
#  17   -1.47   -3.77    3.66   -0.03   -0.18    0.00    0.00      -1.79   -0.06   -0.32
#  18   -1.34   -4.33    3.28   -0.10   -0.27    0.00    0.00      -2.75   -0.16   -0.45
#  19   -0.43   -2.66    0.75    0.00   -0.24    0.00    0.00      -2.58    0.00   -0.40
#  20   -1.75   -3.08    1.91   -0.05   -0.27    0.00    0.00      -3.24   -0.09   -0.46
#  21    1.28   -2.80    1.93    0.00   -0.20    0.00    0.00       0.21    0.00   -0.31
#  22   -4.59   -1.98    0.58   -0.25    0.76    0.00    0.00      -5.48   -0.38    1.18
#  23   -1.01   -3.04    0.88   -0.02   -0.30    0.00    0.00      -3.49   -0.03   -0.46
#  24   -0.71   -2.76    0.61    0.00   -0.30    0.00    0.00      -3.16    0.00   -0.46
#  25   -0.83   -2.14    0.37    0.05   -0.25    0.00    0.00      -2.80    0.08   -0.40
#  26   -0.77   -2.33    0.79    0.06   -0.26    0.00    0.00      -2.50    0.11   -0.45
#  27   -0.90   -0.24    0.02   -0.03   -0.08    0.00    0.00      -1.24   -0.10   -0.23
#  28   -1.35   -0.68    0.43   -0.03   -0.13    0.00    0.00      -1.76   -0.07   -0.28
#  29   -0.57   -0.67    0.88   -0.03   -0.09    0.00    0.00      -0.48   -0.08   -0.28
#  30   -0.45   -0.11    0.00   -0.01   -0.03    0.00    0.00      -0.60   -0.12   -0.28
#  31   -0.49   -0.25    0.05   -0.04   -0.07    0.00    0.00      -0.79   -0.16   -0.28
#  32   -0.67   -0.42    0.14   -0.02   -0.07    0.00    0.00      -1.04   -0.06   -0.23
#  33   -0.80   -0.13    0.01    0.02   -0.03    0.00    0.00      -0.94    0.16   -0.28
#  34   -1.90   -0.94    2.48    0.04   -0.08    0.00    0.00      -0.40    0.13   -0.28
#  35   -1.34   -0.23    0.02    0.03   -0.07    0.00    0.00      -1.59    0.10   -0.28
#  36   -0.75   -0.30    0.08   -0.03   -0.06    0.00    0.00      -1.05   -0.13   -0.28
#  37   -0.86   -0.29    0.03   -0.02   -0.09    0.00    0.00      -1.23   -0.07   -0.28
#  38    2.02   -0.03    0.00    0.27    0.16    0.00    0.00       2.42    0.59    0.36
#  39    1.18   -0.05    0.00    0.68    0.35    0.00    0.00       2.17    1.16    0.59
#  40   -1.10   -0.55    0.38    0.15   -0.10    0.00    0.00      -1.22    0.41   -0.28
#  41    0.77   -0.97    1.49    0.10   -0.12    0.00    0.00       1.26    0.20   -0.24
#  42    0.84   -1.89    4.22    0.60   -0.18    0.00    0.00       3.57    0.91   -0.28
#  43    1.29   -0.71    0.30    0.23   -0.15    0.00    0.00       0.96    0.44   -0.28
#  44    3.15   -0.04    0.00    1.22    0.65    0.00    0.00       4.97    2.31    1.22
#  45    0.33   -0.81    0.27    0.16   -0.17    0.00    0.00      -0.22    0.26   -0.28
#  46    0.74   -0.70    0.15    0.18   -0.17    0.00    0.00       0.20    0.30   -0.28
#  47    1.38   -0.89    1.62   -0.10   -0.13    0.00    0.00       1.88   -0.23   -0.28

@<TRIPOS>MOLECULE
             1542        86
   47    50     0     0     0



@<TRIPOS>ATOM
      1 C1         22.3892    17.8348    60.2885 C.3        1          -0.1386
      2 C2         23.7288    18.2373    60.9086 C.3        1          -0.0860
      3 C3         24.8144    17.2585    60.4570 C.3        1          -0.1369
      4 C4         24.0965    19.6515    60.4550 C.3        1          -0.1391
      5 C5         23.6151    18.2045    62.4340 C.3        1           0.1479
      6 N1         22.6350    17.1896    62.8289 N.pl3      1          -0.3697
      7 N2         21.2640    17.4122    62.9960 N.2        1          -0.2297
      8 C6         20.6713    16.2969    63.3519 C.2        1           0.1644
      9 C7         21.7011    15.2610    63.4299 C.ar       1          -0.3252
     10 C8         21.7118    13.8930    63.7487 C.ar       1           0.5181
     11 N3         20.5450    13.2359    64.0886 N.pl3      1          -0.8292
     12 N4         22.8727    13.2462    63.7146 N.ar       1          -0.6052
     13 C9         23.9917    13.8693    63.3897 C.ar       1           0.3846
     14 N5         24.0299    15.1476    63.0847 N.ar       1          -0.5695
     15 C10        22.9165    15.8807    63.0849 C.ar       1           0.3797
     16 C11        19.2254    16.1195    63.6246 C.ar       1          -0.0261
     17 C12        18.2881    16.3824    62.6115 C.ar       1          -0.1056
     18 C13        16.9581    16.2273    62.8360 C.ar       1          -0.0984
     19 C14        16.5028    15.7985    64.0963 C.ar       1          -0.0281
     20 C15        15.1324    15.6304    64.3521 C.ar       1          -0.1383
     21 C16        14.7205    15.2124    65.5857 C.ar       1           0.1192
     22 O1         13.3939    15.0503    65.8302 O.3        1          -0.4994
     23 C17        15.6463    14.9486    66.6001 C.ar       1          -0.1379
     24 C18        16.9802    15.1017    66.3853 C.ar       1          -0.0820
     25 C19        17.4398    15.5302    65.1266 C.ar       1          -0.0599
     26 C20        18.8103    15.6913    64.8723 C.ar       1          -0.0581
     27 H1         21.6157    18.5322    60.6102 H          1           0.0549
     28 H2         22.4704    17.8582    59.2017 H          1           0.0579
     29 H3         22.1273    16.8274    60.6118 H          1           0.0559
     30 H4         25.7688    17.5452    60.8987 H          1           0.0553
     31 H5         24.5525    16.2510    60.7802 H          1           0.0646
     32 H6         24.8954    17.2818    59.3703 H          1           0.0477
     33 H7         25.0509    19.9382    60.8968 H          1           0.0590
     34 H8         24.1776    19.6750    59.3684 H          1           0.0604
     35 H9         23.3231    20.3488    60.7769 H          1           0.0635
     36 H10        24.5855    17.9596    62.8656 H          1           0.1000
     37 H11        23.2926    19.1809    62.7954 H          1           0.0962
     38 H12        19.7044    13.7196    64.1093 H          1           0.4136
     39 H13        20.5663    12.2909    64.3065 H          1           0.4107
     40 H14        24.9127    13.3056    63.3746 H          1           0.2040
     41 H15        18.6300    16.7122    61.6417 H          1           0.1331
     42 H16        16.2496    16.4337    62.0474 H          1           0.1370
     43 H17        14.4071    15.8312    63.5772 H          1           0.1369
     44 H18        13.1928    14.7524    66.7280 H          1           0.3944
     45 H19        15.2971    14.6192    67.5675 H          1           0.1332
     46 H20        17.6841    14.8952    67.1779 H          1           0.1356
     47 H21        19.5352    15.4864    65.6463 H          1           0.1355
@<TRIPOS>BOND
     1    1    2 1
     2    1   27 1
     3    1   28 1
     4    1   29 1
     5    2    3 1
     6    2    4 1
     7    2    5 1
     8    3   30 1
     9    3   31 1
    10    3   32 1
    11    4   33 1
    12    4   34 1
    13    4   35 1
    14    5    6 1
    15    5   36 1
    16    5   37 1
    17    6   15 1
    18    6    7 1
    19    7    8 2
    20    8    9 1
    21    8   16 1
    22    9   15 ar
    23    9   10 ar
    24   10   11 1
    25   10   12 ar
    26   11   38 1
    27   11   39 1
    28   12   13 ar
    29   13   14 ar
    30   13   40 1
    31   14   15 ar
    32   16   26 ar
    33   16   17 ar
    34   17   18 ar
    35   17   41 1
    36   18   19 ar
    37   18   42 1
    38   19   25 ar
    39   19   20 ar
    40   20   21 ar
    41   20   43 1
    42   21   22 1
    43   21   23 ar
    44   22   44 1
    45   23   24 ar
    46   23   45 1
    47   24   25 ar
    48   24   46 1
    49   25   26 ar
    50   26   47 1
##########                 Name:                 1542
##########          Protonation:                   86
##########               SMILES:   CC(C)(C)Cn1c2c(c(n1)c3ccc4cc(ccc4c3)O)c(ncn2)N
##########            Long Name:   [4-amino-1-(2,2-dimethylpropyl)pyrazolo[3,4-d]pyrimidin-3-yl]naphthalen-2-ol
##########          FlexRecCode: 1
##########               Number:                   75
##########   Ligand Source File: /raid1/people/rgc/Examples/tdt/part3/ligand22set/build/ligand22set-0000001.db2.g
##########           GlobalRank: 15
##########                 Rank:                    4
##########               Setnum:                    9
##########             Matchnum:                43519
##########                Cloud:                    1
##########        Electrostatic:            -5.788847
##########        Van der Waals:           -30.784159
##########  Ligand Polar Desolv:             4.449399
########## Ligand Apolar Desolv:            -3.453666
##########      Internal Energy:             0.000000
##########      Receptor Energy: 0.0
########## Receptor Desolvation:             0.000000
########## Receptor Hydrophobic:             0.000000
##########         Total Energy: -35.58
##########        Ligand Charge:             0.000000
##########            Arbitrary:    +999.9990
##########     heavy atom count:   26
##########           pose count:    5
##########        Ligand Energy:             0.000000
# num electro vdwattr vdwrepu polsolv apolsol rdesolv rhydroe totalscore fullpol fullapo
#   1    2.23   -1.22    0.39    0.10   -0.07    0.00    0.00       1.43    0.24   -0.17
#   2    1.20   -0.62    0.04    0.02   -0.03    0.00    0.00       0.62    0.07   -0.08
#   3    1.46   -0.72    0.10    0.10   -0.05    0.00    0.00       0.90    0.31   -0.15
#   4    2.75   -0.80    0.18   -0.06   -0.06    0.00    0.00       2.02   -0.17   -0.17
#   5   -1.20   -0.70    0.05   -0.09   -0.15    0.00    0.00      -2.09   -0.25   -0.40
#   6    1.23   -1.19    0.10    0.69    0.35    0.00    0.00       1.18    1.67    0.85
#   7   -0.42   -1.88    0.59    0.59    0.48    0.00    0.00      -0.63    1.32    1.07
#   8    1.13   -1.82    0.48   -0.32   -0.34    0.00    0.00      -0.87   -0.69   -0.75
#   9   -0.83   -1.64    0.46    0.75   -0.20    0.00    0.00      -1.45    1.64   -0.44
#  10    1.58   -1.91    0.40   -0.88   -1.23    0.00    0.00      -2.05   -1.54   -2.15
#  11   -3.25   -2.19    0.42   -0.32    0.51    0.00    0.00      -4.83   -0.52    0.81
#  12   -0.57   -2.79    0.91    1.11    1.13    0.00    0.00      -0.20    2.04    2.08
#  13   -1.04   -2.27    0.84   -0.45   -1.47    0.00    0.00      -4.39   -0.97   -3.16
#  14    1.38   -1.40    0.20    1.07    0.83    0.00    0.00       2.07    2.60    2.02
#  15   -0.46   -1.39    0.27   -0.76   -0.70    0.00    0.00      -3.04   -1.86   -1.71
#  16   -0.39   -2.29    1.05    0.04   -0.19    0.00    0.00      -1.78    0.07   -0.37
#  17   -1.47   -3.77    3.66   -0.03   -0.18    0.00    0.00      -1.79   -0.06   -0.32
#  18   -1.34   -4.33    3.28   -0.10   -0.27    0.00    0.00      -2.75   -0.16   -0.45
#  19   -0.43   -2.66    0.75    0.00   -0.24    0.00    0.00      -2.58    0.00   -0.40
#  20   -1.75   -3.08    1.91   -0.05   -0.27    0.00    0.00      -3.24   -0.09   -0.46
#  21    1.28   -2.80    1.93    0.00   -0.20    0.00    0.00       0.21    0.00   -0.31
#  22   -4.59   -1.98    0.58   -0.25    0.76    0.00    0.00      -5.48   -0.38    1.18
#  23   -1.01   -3.04    0.88   -0.02   -0.30    0.00    0.00      -3.49   -0.03   -0.46
#  24   -0.71   -2.76    0.61    0.00   -0.30    0.00    0.00      -3.16    0.00   -0.46
#  25   -0.83   -2.14    0.37    0.05   -0.25    0.00    0.00      -2.80    0.08   -0.40
#  26   -0.77   -2.33    0.79    0.06   -0.26    0.00    0.00      -2.50    0.11   -0.45
#  27   -0.90   -0.24    0.02   -0.03   -0.08    0.00    0.00      -1.24   -0.10   -0.23
#  28   -1.35   -0.68    0.43   -0.03   -0.13    0.00    0.00      -1.76   -0.07   -0.28
#  29   -0.57   -0.67    0.88   -0.03   -0.09    0.00    0.00      -0.48   -0.08   -0.28
#  30   -0.45   -0.11    0.00   -0.01   -0.03    0.00    0.00      -0.60   -0.12   -0.28
#  31   -0.49   -0.25    0.05   -0.04   -0.07    0.00    0.00      -0.79   -0.16   -0.28
#  32   -0.67   -0.42    0.14   -0.02   -0.07    0.00    0.00      -1.04   -0.06   -0.23
#  33   -0.80   -0.13    0.01    0.02   -0.03    0.00    0.00      -0.94    0.16   -0.28
#  34   -1.90   -0.94    2.48    0.04   -0.08    0.00    0.00      -0.40    0.13   -0.28
#  35   -1.34   -0.23    0.02    0.03   -0.07    0.00    0.00      -1.59    0.10   -0.28
#  36   -0.75   -0.30    0.08   -0.03   -0.06    0.00    0.00      -1.05   -0.13   -0.28
#  37   -0.86   -0.29    0.03   -0.02   -0.09    0.00    0.00      -1.23   -0.07   -0.28
#  38    2.02   -0.03    0.00    0.27    0.16    0.00    0.00       2.42    0.59    0.36
#  39    1.18   -0.05    0.00    0.68    0.35    0.00    0.00       2.17    1.16    0.59
#  40   -1.10   -0.55    0.38    0.15   -0.10    0.00    0.00      -1.22    0.41   -0.28
#  41    0.77   -0.97    1.49    0.10   -0.12    0.00    0.00       1.26    0.20   -0.24
#  42    0.84   -1.89    4.22    0.60   -0.18    0.00    0.00       3.57    0.91   -0.28
#  43    1.29   -0.71    0.30    0.23   -0.15    0.00    0.00       0.96    0.44   -0.28
#  44    3.64   -0.03    0.00    1.05    0.55    0.00    0.00       5.21    2.31    1.22
#  45    0.33   -0.81    0.27    0.16   -0.17    0.00    0.00      -0.22    0.26   -0.28
#  46    0.74   -0.70    0.15    0.18   -0.17    0.00    0.00       0.20    0.30   -0.28
#  47    1.38   -0.89    1.62   -0.10   -0.13    0.00    0.00       1.88   -0.23   -0.28

@<TRIPOS>MOLECULE
             1542        86
   47    50     0     0     0



@<TRIPOS>ATOM
      1 C1         22.3892    17.8348    60.2885 C.3        1          -0.1386
      2 C2         23.7288    18.2373    60.9086 C.3        1          -0.0860
      3 C3         24.8144    17.2585    60.4570 C.3        1          -0.1369
      4 C4         24.0965    19.6515    60.4550 C.3        1          -0.1391
      5 C5         23.6151    18.2045    62.4340 C.3        1           0.1479
      6 N1         22.6350    17.1896    62.8289 N.pl3      1          -0.3697
      7 N2         21.2640    17.4122    62.9960 N.2        1          -0.2297
      8 C6         20.6713    16.2969    63.3519 C.2        1           0.1644
      9 C7         21.7011    15.2610    63.4299 C.ar       1          -0.3252
     10 C8         21.7118    13.8930    63.7487 C.ar       1           0.5181
     11 N3         20.5450    13.2359    64.0886 N.pl3      1          -0.8292
     12 N4         22.8727    13.2462    63.7146 N.ar       1          -0.6052
     13 C9         23.9917    13.8693    63.3897 C.ar       1           0.3846
     14 N5         24.0299    15.1476    63.0847 N.ar       1          -0.5695
     15 C10        22.9165    15.8807    63.0849 C.ar       1           0.3797
     16 C11        19.2254    16.1195    63.6246 C.ar       1          -0.0261
     17 C12        18.2881    16.3824    62.6115 C.ar       1          -0.1056
     18 C13        16.9581    16.2273    62.8360 C.ar       1          -0.0984
     19 C14        16.5028    15.7985    64.0963 C.ar       1          -0.0281
     20 C15        15.1324    15.6304    64.3521 C.ar       1          -0.1383
     21 C16        14.7205    15.2124    65.5857 C.ar       1           0.1192
     22 O1         13.3939    15.0503    65.8302 O.3        1          -0.4994
     23 C17        15.6463    14.9486    66.6001 C.ar       1          -0.1379
     24 C18        16.9802    15.1017    66.3853 C.ar       1          -0.0820
     25 C19        17.4398    15.5302    65.1266 C.ar       1          -0.0599
     26 C20        18.8103    15.6913    64.8723 C.ar       1          -0.0581
     27 H1         21.6157    18.5322    60.6102 H          1           0.0549
     28 H2         22.4704    17.8582    59.2017 H          1           0.0579
     29 H3         22.1273    16.8274    60.6118 H          1           0.0559
     30 H4         25.7688    17.5452    60.8987 H          1           0.0553
     31 H5         24.5525    16.2510    60.7802 H          1           0.0646
     32 H6         24.8954    17.2818    59.3703 H          1           0.0477
     33 H7         25.0509    19.9382    60.8968 H          1           0.0590
     34 H8         24.1776    19.6750    59.3684 H          1           0.0604
     35 H9         23.3231    20.3488    60.7769 H          1           0.0635
     36 H10        24.5855    17.9596    62.8656 H          1           0.1000
     37 H11        23.2926    19.1809    62.7954 H          1           0.0962
     38 H12        19.7044    13.7196    64.1093 H          1           0.4136
     39 H13        20.5663    12.2909    64.3065 H          1           0.4107
     40 H14        24.9127    13.3056    63.3746 H          1           0.2040
     41 H15        18.6300    16.7122    61.6417 H          1           0.1331
     42 H16        16.2496    16.4337    62.0474 H          1           0.1370
     43 H17        14.4071    15.8312    63.5772 H          1           0.1369
     44 H18        12.8267    15.2544    65.0741 H          1           0.3944
     45 H19        15.2971    14.6192    67.5675 H          1           0.1332
     46 H20        17.6841    14.8952    67.1779 H          1           0.1356
     47 H21        19.5352    15.4864    65.6463 H          1           0.1355
@<TRIPOS>BOND
     1    1    2 1
     2    1   27 1
     3    1   28 1
     4    1   29 1
     5    2    3 1
     6    2    4 1
     7    2    5 1
     8    3   30 1
     9    3   31 1
    10    3   32 1
    11    4   33 1
    12    4   34 1
    13    4   35 1
    14    5    6 1
    15    5   36 1
    16    5   37 1
    17    6   15 1
    18    6    7 1
    19    7    8 2
    20    8    9 1
    21    8   16 1
    22    9   15 ar
    23    9   10 ar
    24   10   11 1
    25   10   12 ar
    26   11   38 1
    27   11   39 1
    28   12   13 ar
    29   13   14 ar
    30   13   40 1
    31   14   15 ar
    32   16   26 ar
    33   16   17 ar
    34   17   18 ar
    35   17   41 1
    36   18   19 ar
    37   18   42 1
    38   19   25 ar
    39   19   20 ar
    40   20   21 ar
    41   20   43 1
    42   21   22 1
    43   21   23 ar
    44   22   44 1
    45   23   24 ar
    46   23   45 1
    47   24   25 ar
    48   24   46 1
    49   25   26 ar
    50   26   47 1
##########                 Name:                 1542
##########          Protonation:                   86
##########               SMILES:   CC(C)(C)Cn1c2c(c(n1)c3ccc4cc(ccc4c3)O)c(ncn2)N
##########            Long Name:   [4-amino-1-(2,2-dimethylpropyl)pyrazolo[3,4-d]pyrimidin-3-yl]naphthalen-2-ol
##########          FlexRecCode: 1
##########               Number:                   76
##########   Ligand Source File: /raid1/people/rgc/Examples/tdt/part3/ligand22set/build/ligand22set-0000001.db2.g
##########           GlobalRank: 20
##########                 Rank:                    1
##########               Setnum:                   16
##########             Matchnum:                10516
##########                Cloud:                    1
##########        Electrostatic:            -7.667490
##########        Van der Waals:           -23.763689
##########  Ligand Polar Desolv:             3.075515
########## Ligand Apolar Desolv:            -1.786240
##########      Internal Energy:             0.000000
##########      Receptor Energy: 0.0
########## Receptor Desolvation:             0.000000
########## Receptor Hydrophobic:             0.000000
##########         Total Energy: -30.14
##########        Ligand Charge:             0.000000
##########            Arbitrary:    +999.9990
##########     heavy atom count:   26
##########           pose count:    5
##########        Ligand Energy:             0.000000
# num electro vdwattr vdwrepu polsolv apolsol rdesolv rhydroe totalscore fullpol fullapo
#   1   -0.13   -0.18    0.01    0.03   -0.02    0.00    0.00      -0.30    0.24   -0.17
#   2   -0.09   -0.10    0.00    0.00    0.00    0.00    0.00      -0.19    0.07   -0.08
#   3   -0.18   -0.09    0.00    0.02   -0.01    0.00    0.00      -0.26    0.31   -0.15
#   4   -0.16   -0.07    0.00   -0.01   -0.01    0.00    0.00      -0.25   -0.17   -0.17
#   5    0.11   -0.22    0.01   -0.04   -0.06    0.00    0.00      -0.19   -0.25   -0.40
#   6    0.11   -0.46    0.02    0.30    0.15    0.00    0.00       0.11    1.67    0.85
#   7    0.43   -0.57    0.02    0.31    0.25    0.00    0.00       0.45    1.32    1.07
#   8   -0.63   -0.69    0.03   -0.19   -0.21    0.00    0.00      -1.68   -0.69   -0.75
#   9    1.13   -0.89    0.11    0.45   -0.12    0.00    0.00       0.68    1.64   -0.44
#  10   -4.04   -1.87    0.59   -0.54   -0.76    0.00    0.00      -6.62   -1.54   -2.15
#  11   13.78   -2.76    1.80   -0.20    0.32    0.00    0.00      12.93   -0.52    0.81
#  12    0.76   -3.16    1.75    0.83    0.85    0.00    0.00       1.02    2.04    2.08
#  13   -0.07   -1.80    0.48   -0.36   -1.18    0.00    0.00      -2.93   -0.97   -3.16
#  14   -0.26   -0.82    0.08    0.74    0.57    0.00    0.00       0.32    2.60    2.02
#  15   -0.15   -0.70    0.09   -0.40   -0.36    0.00    0.00      -1.52   -1.86   -1.71
#  16    0.13   -0.90    0.07    0.02   -0.12    0.00    0.00      -0.79    0.07   -0.37
#  17    0.73   -1.02    0.13   -0.02   -0.10    0.00    0.00      -0.28   -0.06   -0.32
#  18    0.44   -1.23    0.12   -0.06   -0.18    0.00    0.00      -0.92   -0.16   -0.45
#  19    0.02   -1.42    0.24    0.00   -0.17    0.00    0.00      -1.33    0.00   -0.40
#  20   -0.65   -2.03    0.81   -0.04   -0.21    0.00    0.00      -2.13   -0.09   -0.46
#  21    0.70   -1.82    0.50    0.00   -0.17    0.00    0.00      -0.79    0.00   -0.31
#  22   -4.41   -1.63    0.37   -0.21    0.65    0.00    0.00      -5.23   -0.38    1.18
#  23   -0.50   -1.91    0.36   -0.02   -0.27    0.00    0.00      -2.34   -0.03   -0.46
#  24   -0.03   -2.34    0.95    0.00   -0.24    0.00    0.00      -1.67    0.00   -0.46
#  25    0.11   -1.70    0.67    0.03   -0.17    0.00    0.00      -1.06    0.08   -0.40
#  26    0.26   -1.38    0.27    0.04   -0.18    0.00    0.00      -0.99    0.11   -0.45
#  27    0.02   -0.08    0.00   -0.01   -0.02    0.00    0.00      -0.08   -0.10   -0.23
#  28    0.08   -0.04    0.00    0.00   -0.01    0.00    0.00       0.02   -0.07   -0.28
#  29    0.01   -0.06    0.00   -0.01   -0.02    0.00    0.00      -0.07   -0.08   -0.28
#  30    0.07   -0.03    0.00    0.00   -0.01    0.00    0.00       0.03   -0.12   -0.28
#  31    0.07   -0.03    0.00   -0.01   -0.01    0.00    0.00       0.02   -0.16   -0.28
#  32    0.07   -0.02    0.00    0.00   -0.01    0.00    0.00       0.04   -0.06   -0.23
#  33    0.07   -0.02    0.00    0.00   -0.01    0.00    0.00       0.05    0.16   -0.28
#  34    0.07   -0.02    0.00    0.00   -0.01    0.00    0.00       0.05    0.13   -0.28
#  35    0.07   -0.03    0.00    0.00   -0.01    0.00    0.00       0.04    0.10   -0.28
#  36    0.11   -0.08    0.00   -0.01   -0.03    0.00    0.00      -0.01   -0.13   -0.28
#  37    0.08   -0.07    0.00    0.00   -0.02    0.00    0.00      -0.02   -0.07   -0.28
#  38   -5.52   -0.02    0.00    0.16    0.10    0.00    0.00      -5.28    0.59    0.36
#  39  -11.29   -0.12    0.02    0.49    0.25    0.00    0.00     -10.64    1.16    0.59
#  40   -0.06   -0.66    0.70    0.14   -0.09    0.00    0.00       0.02    0.41   -0.28
#  41   -1.15   -0.17    0.02    0.03   -0.03    0.00    0.00      -1.30    0.20   -0.24
#  42   -0.69   -0.27    0.02    0.30   -0.09    0.00    0.00      -0.73    0.91   -0.28
#  43    1.09   -0.69    0.63    0.16   -0.10    0.00    0.00       1.10    0.44   -0.28
#  44    2.50   -0.03    0.00    0.92    0.48    0.00    0.00       3.87    2.31    1.22
#  45    0.50   -0.44    0.06    0.15   -0.16    0.00    0.00       0.11    0.26   -0.28
#  46   -0.25   -0.94    1.07    0.15   -0.14    0.00    0.00      -0.12    0.30   -0.28
#  47   -0.92   -0.42    0.22   -0.08   -0.09    0.00    0.00      -1.30   -0.23   -0.28

@<TRIPOS>MOLECULE
             1542        86
   47    50     0     0     0



@<TRIPOS>ATOM
      1 C1         29.8964    16.8990    62.8232 C.3        1          -0.1386
      2 C2         30.8120    16.0852    61.9064 C.3        1          -0.0860
      3 C3         31.4916    17.0201    60.9040 C.3        1          -0.1369
      4 C4         31.8769    15.3776    62.7467 C.3        1          -0.1391
      5 C5         29.9830    15.0440    61.1516 C.3        1           0.1479
      6 N1         28.6237    15.5528    60.9529 N.pl3      1          -0.3697
      7 N2         27.5561    15.3730    61.8388 N.2        1          -0.2297
      8 C6         26.4795    15.9534    61.3633 C.2        1           0.1644
      9 C7         26.8404    16.5602    60.0822 C.ar       1          -0.3252
     10 C8         26.1551    17.3037    59.1072 C.ar       1           0.5181
     11 N3         24.8170    17.6109    59.2616 N.pl3      1          -0.8292
     12 N4         26.8265    17.7048    58.0321 N.ar       1          -0.6052
     13 C9         28.1064    17.4144    57.8793 C.ar       1           0.3846
     14 N5         28.7880    16.7214    58.7646 N.ar       1          -0.5695
     15 C10        28.2042    16.2797    59.8787 C.ar       1           0.3797
     16 C11        25.1443    15.9877    62.0057 C.ar       1          -0.0261
     17 C12        24.5594    17.2230    62.3313 C.ar       1          -0.1056
     18 C13        23.3374    17.2813    62.9199 C.ar       1          -0.0984
     19 C14        22.6399    16.0948    63.2119 C.ar       1          -0.0281
     20 C15        21.3747    16.1299    63.8200 C.ar       1          -0.1383
     21 C16        20.7215    14.9611    64.0909 C.ar       1           0.1192
     22 O1         19.4973    14.9980    64.6789 O.3        1          -0.4994
     23 C17        21.2961    13.7269    63.7706 C.ar       1          -0.1379
     24 C18        22.5197    13.6581    63.1816 C.ar       1          -0.0820
     25 C19        23.2205    14.8421    62.8879 C.ar       1          -0.0599
     26 C20        24.4820    14.8039    62.2746 C.ar       1          -0.0581
     27 H1         29.4122    16.2330    63.5373 H          1           0.0549
     28 H2         30.4870    17.6409    63.3607 H          1           0.0579
     29 H3         29.1379    17.4031    62.2243 H          1           0.0559
     30 H4         32.1438    16.4403    60.2509 H          1           0.0553
     31 H5         30.7331    17.5242    60.3052 H          1           0.0646
     32 H6         32.0821    17.7619    61.4417 H          1           0.0477
     33 H7         32.5292    14.7978    62.0936 H          1           0.0590
     34 H8         32.4675    16.1192    63.2845 H          1           0.0604
     35 H9         31.3926    14.7114    63.4608 H          1           0.0635
     36 H10        30.4423    14.8465    60.1831 H          1           0.1000
     37 H11        29.9446    14.1212    61.7304 H          1           0.0962
     38 H12        24.3389    17.3124    60.0511 H          1           0.4136
     39 H13        24.3556    18.1250    58.5807 H          1           0.4107
     40 H14        28.6133    17.7601    56.9905 H          1           0.2040
     41 H15        25.0889    18.1380    62.1105 H          1           0.1331
     42 H16        22.9009    18.2385    63.1646 H          1           0.1370
     43 H17        20.9202    17.0765    64.0727 H          1           0.1369
     44 H18        19.1087    14.1261    64.8338 H          1           0.3944
     45 H19        20.7607    12.8160    63.9943 H          1           0.1332
     46 H20        22.9520    12.6982    62.9403 H          1           0.1356
     47 H21        24.9341    13.8571    62.0184 H          1           0.1355
@<TRIPOS>BOND
     1    1    2 1
     2    1   27 1
     3    1   28 1
     4    1   29 1
     5    2    3 1
     6    2    4 1
     7    2    5 1
     8    3   30 1
     9    3   31 1
    10    3   32 1
    11    4   33 1
    12    4   34 1
    13    4   35 1
    14    5    6 1
    15    5   36 1
    16    5   37 1
    17    6   15 1
    18    6    7 1
    19    7    8 2
    20    8    9 1
    21    8   16 1
    22    9   15 ar
    23    9   10 ar
    24   10   11 1
    25   10   12 ar
    26   11   38 1
    27   11   39 1
    28   12   13 ar
    29   13   14 ar
    30   13   40 1
    31   14   15 ar
    32   16   26 ar
    33   16   17 ar
    34   17   18 ar
    35   17   41 1
    36   18   19 ar
    37   18   42 1
    38   19   25 ar
    39   19   20 ar
    40   20   21 ar
    41   20   43 1
    42   21   22 1
    43   21   23 ar
    44   22   44 1
    45   23   24 ar
    46   23   45 1
    47   24   25 ar
    48   24   46 1
    49   25   26 ar
    50   26   47 1
##########                 Name:                 1492
##########          Protonation:                  100
##########               SMILES:   CC(C)n1c(c(c(n1)c2ccc3ccccc3c2)C(=O)N)N
##########            Long Name:   5-amino-1-isopropyl-3-(2-naphthyl)pyrazole-4-carboxamide
##########          FlexRecCode: 1
##########               Number:                   18
##########   Ligand Source File: /raid1/people/rgc/Examples/tdt/part3/ligand22set/build/ligand22set-0000001.db2.g
##########           GlobalRank: 15
##########                 Rank:                    1
##########               Setnum:                   17
##########             Matchnum:                  775
##########                Cloud:                    1
##########        Electrostatic:           -12.054174
##########        Van der Waals:           -28.819763
##########  Ligand Polar Desolv:             6.321718
########## Ligand Apolar Desolv:            -2.676051
##########      Internal Energy:             0.000000
##########      Receptor Energy: 0.0
########## Receptor Desolvation:             0.000000
########## Receptor Hydrophobic:             0.000000
##########         Total Energy: -37.23
##########        Ligand Charge:             0.000000
##########            Arbitrary:    +999.9990
##########     heavy atom count:   22
##########           pose count:   10
##########        Ligand Energy:             0.000000
# num electro vdwattr vdwrepu polsolv apolsol rdesolv rhydroe totalscore fullpol fullapo
#   1    1.36   -1.03    0.49   -0.06   -0.07    0.00    0.00       0.70   -0.16   -0.19
#   2   -0.53   -0.78    0.08    0.10   -0.14    0.00    0.00      -1.28    0.25   -0.36
#   3    0.60   -1.32    0.23   -0.15   -0.09    0.00    0.00      -0.73   -0.33   -0.19
#   4   -0.56   -1.51    0.27    0.36    0.40    0.00    0.00      -1.05    0.84    0.93
#   5   -2.05   -2.15    0.81    0.82    0.53    0.00    0.00      -2.05    1.75    1.14
#   6    1.42   -1.86    0.53   -0.51   -0.40    0.00    0.00      -0.82   -0.98   -0.77
#   7   -1.57   -1.81    0.33    1.17   -0.25    0.00    0.00      -2.13    1.98   -0.42
#   8    2.21   -3.16    1.32   -1.99   -0.34    0.00    0.00      -1.96   -3.07   -0.53
#   9    0.49   -5.09    4.87    0.21    1.27    0.00    0.00       1.76    0.33    1.96
#  10   -4.18   -6.07    5.91    3.86    0.27    0.00    0.00      -0.21    5.82    0.41
#  11    0.66   -1.77    0.50   -0.41   -1.06    0.00    0.00      -2.06   -0.84   -2.17
#  12    1.58   -2.18    0.65   -0.98    0.45    0.00    0.00      -0.50   -2.01    0.91
#  13   -0.18   -1.92    0.34    0.13   -0.23    0.00    0.00      -1.85    0.23   -0.40
#  14   -0.69   -2.87    1.05    0.46   -0.26    0.00    0.00      -2.31    0.75   -0.42
#  15   -0.56   -3.02    0.73    0.31   -0.29    0.00    0.00      -2.83    0.48   -0.45
#  16   -0.45   -2.67    0.91    0.20   -0.26    0.00    0.00      -2.28    0.30   -0.40
#  17   -0.99   -2.76    0.98    0.13   -0.29    0.00    0.00      -2.94    0.20   -0.46
#  18   -1.21   -2.29    0.78    0.01   -0.31    0.00    0.00      -3.02    0.02   -0.47
#  19   -1.20   -3.20    1.47    0.01   -0.28    0.00    0.00      -3.20    0.02   -0.47
#  20   -1.14   -3.97    2.65    0.14   -0.28    0.00    0.00      -2.61    0.23   -0.46
#  21   -0.80   -2.62    0.89    0.20   -0.24    0.00    0.00      -2.56    0.34   -0.40
#  22   -1.02   -2.22    0.47    0.21   -0.27    0.00    0.00      -2.82    0.36   -0.45
#  23   -0.56   -0.93    2.50    0.15   -0.09    0.00    0.00       1.07    0.48   -0.28
#  24   -0.58   -0.29    0.08   -0.01   -0.08    0.00    0.00      -0.87   -0.02   -0.28
#  25   -0.88   -0.18    0.01   -0.02   -0.05    0.00    0.00      -1.11   -0.09   -0.28
#  26   -0.33   -0.24    0.02    0.18   -0.05    0.00    0.00      -0.41    0.80   -0.23
#  27   -0.04   -0.81    0.33   -0.02   -0.14    0.00    0.00      -0.67   -0.04   -0.28
#  28   -0.42   -0.34    0.05    0.04   -0.09    0.00    0.00      -0.77    0.12   -0.28
#  29   -0.29   -0.41    0.08    0.22   -0.11    0.00    0.00      -0.50    0.56   -0.28
#  30    0.88   -0.05    0.00    0.40    0.30    0.00    0.00       1.53    0.79    0.59
#  31   -4.26   -0.24    0.12    0.29    0.40    0.00    0.00      -3.70    0.43    0.60
#  32   -1.54   -0.02    0.00    0.76    0.16    0.00    0.00      -0.64    2.46    0.50
#  33   -1.06   -0.06    0.00    0.57    0.27    0.00    0.00      -0.28    1.22    0.58
#  34    0.85   -1.23    2.74   -0.51   -0.12    0.00    0.00       1.74   -0.91   -0.21
#  35   -0.05   -0.84    0.22   -0.22   -0.18    0.00    0.00      -1.07   -0.34   -0.28
#  36    0.68   -0.66    0.16    0.06   -0.16    0.00    0.00       0.09    0.11   -0.28
#  37    1.17   -0.38    0.05    0.21   -0.14    0.00    0.00       0.91    0.42   -0.28
#  38    0.83   -0.91    0.61    0.22   -0.15    0.00    0.00       0.59    0.41   -0.28
#  39    0.48   -1.68    3.83    0.02   -0.17    0.00    0.00       2.48    0.04   -0.28
#  40    1.88   -0.53    0.16   -0.27   -0.14    0.00    0.00       1.10   -0.56   -0.28

@<TRIPOS>MOLECULE
             1492       100
   40    42     0     0     0



@<TRIPOS>ATOM
      1 C1         22.9280    16.9670    61.3520 C.3        1          -0.1630
      2 C2         23.0721    16.8193    62.8682 C.3        1           0.1579
      3 C3         22.9030    18.1871    63.5323 C.3        1          -0.1614
      4 N1         22.0450    15.9026    63.3693 N.pl3      1          -0.3846
      5 N2         20.7698    16.2800    63.7980 N.2        1          -0.2765
      6 C4         20.1060    15.2151    64.1822 C.2        1           0.1783
      7 C5         20.9946    14.0616    63.9972 C.2        1          -0.3637
      8 C6         20.6879    12.6582    64.2905 C.2        1           0.6129
      9 N3         19.4801    12.3215    64.7847 N.am       1          -0.8477
     10 O1         21.5240    11.7974    64.0877 O.2        1          -0.5417
     11 C7         22.1847    14.5670    63.4812 C.2        1           0.4111
     12 N4         23.3053    13.8338    63.1479 N.pl3      1          -0.8435
     13 C8         18.7194    15.1834    64.7053 C.ar       1          -0.0161
     14 C9         18.4741    14.6933    65.9988 C.ar       1          -0.0932
     15 C10        17.2131    14.6537    66.5013 C.ar       1          -0.1049
     16 C11        16.1320    15.1070    65.7239 C.ar       1          -0.0434
     17 C12        14.8182    15.0769    66.2211 C.ar       1          -0.1082
     18 C13        13.7927    15.5229    65.4451 C.ar       1          -0.1126
     19 C14        14.0242    16.0106    64.1602 C.ar       1          -0.1185
     20 C15        15.2827    16.0549    63.6445 C.ar       1          -0.1013
     21 C16        16.3677    15.6036    64.4169 C.ar       1          -0.0549
     22 C17        17.6791    15.6414    63.9183 C.ar       1          -0.0695
     23 H1         23.0485    15.9925    60.8789 H          1           0.0767
     24 H2         21.9406    17.3649    61.1182 H          1           0.0610
     25 H3         23.6921    17.6490    60.9792 H          1           0.0748
     26 H4         24.0596    16.4214    63.1021 H          1           0.0936
     27 H5         23.0057    18.0818    64.6123 H          1           0.0744
     28 H6         23.6671    18.8691    63.1595 H          1           0.0603
     29 H7         21.9154    18.5850    63.2984 H          1           0.0768
     30 H8         18.8138    13.0075    64.9463 H          1           0.4018
     31 H9         19.2772    11.3931    64.9789 H          1           0.4008
     32 H10        24.0906    14.2811    62.7958 H          1           0.4035
     33 H11        23.3076    12.8709    63.2660 H          1           0.4194
     34 H12        19.2991    14.3431    66.6014 H          1           0.1339
     35 H13        17.0404    14.2738    67.4974 H          1           0.1312
     36 H14        14.6228    14.7012    67.2146 H          1           0.1280
     37 H15        12.7843    15.4982    65.8308 H          1           0.1236
     38 H16        13.1926    16.3581    63.5651 H          1           0.1238
     39 H17        15.4474    16.4346    62.6469 H          1           0.1277
     40 H18        17.8735    16.0216    62.9263 H          1           0.1331
@<TRIPOS>BOND
     1    1    2 1
     2    1   23 1
     3    1   24 1
     4    1   25 1
     5    2    3 1
     6    2    4 1
     7    2   26 1
     8    3   27 1
     9    3   28 1
    10    3   29 1
    11    4   11 1
    12    4    5 1
    13    5    6 2
    14    6    7 1
    15    6   13 1
    16    7    8 1
    17    7   11 2
    18    8    9 am
    19    8   10 2
    20    9   30 1
    21    9   31 1
    22   11   12 1
    23   12   32 1
    24   12   33 1
    25   13   22 ar
    26   13   14 ar
    27   14   15 ar
    28   14   34 1
    29   15   16 ar
    30   15   35 1
    31   16   21 ar
    32   16   17 ar
    33   17   18 ar
    34   17   36 1
    35   18   19 ar
    36   18   37 1
    37   19   20 ar
    38   19   38 1
    39   20   21 ar
    40   20   39 1
    41   21   22 ar
    42   22   40 1
##########                 Name:                 1492
##########          Protonation:                  100
##########               SMILES:   CC(C)n1c(c(c(n1)c2ccc3ccccc3c2)C(=O)N)N
##########            Long Name:   5-amino-1-isopropyl-3-(2-naphthyl)pyrazole-4-carboxamide
##########          FlexRecCode: 1
##########               Number:                   18
##########   Ligand Source File: /raid1/people/rgc/Examples/tdt/part3/ligand22set/build/ligand22set-0000001.db2.g
##########           GlobalRank: 15
##########                 Rank:                    2
##########               Setnum:                    5
##########             Matchnum:                63239
##########                Cloud:                    1
##########        Electrostatic:            -8.858125
##########        Van der Waals:           -31.382908
##########  Ligand Polar Desolv:             6.168868
########## Ligand Apolar Desolv:            -2.429222
##########      Internal Energy:             0.000000
##########      Receptor Energy: 0.0
########## Receptor Desolvation:             0.000000
########## Receptor Hydrophobic:             0.000000
##########         Total Energy: -36.5
##########        Ligand Charge:             0.000000
##########            Arbitrary:    +999.9990
##########     heavy atom count:   22
##########           pose count:   10
##########        Ligand Energy:             0.000000
# num electro vdwattr vdwrepu polsolv apolsol rdesolv rhydroe totalscore fullpol fullapo
#   1    2.11   -0.84    0.14   -0.06   -0.08    0.00    0.00       1.27   -0.16   -0.19
#   2   -1.04   -0.66    0.06    0.09   -0.13    0.00    0.00      -1.68    0.25   -0.36
#   3    0.98   -1.13    0.20   -0.13   -0.08    0.00    0.00      -0.17   -0.33   -0.19
#   4    0.56   -1.41    0.40    0.34    0.37    0.00    0.00       0.26    0.84    0.93
#   5   -1.22   -1.69    0.35    0.78    0.51    0.00    0.00      -1.28    1.75    1.14
#   6    1.17   -1.66    0.34   -0.48   -0.38    0.00    0.00      -1.02   -0.98   -0.77
#   7   -1.05   -1.80    0.60    1.10   -0.23    0.00    0.00      -1.39    1.98   -0.42
#   8    2.49   -2.56    0.57   -1.93   -0.33    0.00    0.00      -1.77   -3.07   -0.53
#   9   -3.09   -4.27    1.94    0.22    1.31    0.00    0.00      -3.88    0.33    1.96
#  10   -3.01   -4.39    3.43    3.70    0.26    0.00    0.00      -0.02    5.82    0.41
#  11   -0.29   -2.02    1.76   -0.37   -0.95    0.00    0.00      -1.86   -0.84   -2.17
#  12    3.44   -2.10    0.99   -0.90    0.41    0.00    0.00       1.83   -2.01    0.91
#  13   -0.17   -1.82    0.34    0.13   -0.22    0.00    0.00      -1.75    0.23   -0.40
#  14   -0.79   -2.97    1.88    0.44   -0.25    0.00    0.00      -1.68    0.75   -0.42
#  15   -0.73   -2.75    0.59    0.30   -0.29    0.00    0.00      -2.87    0.48   -0.45
#  16   -0.47   -2.49    0.71    0.20   -0.26    0.00    0.00      -2.32    0.30   -0.40
#  17   -0.97   -2.84    1.08    0.13   -0.29    0.00    0.00      -2.91    0.20   -0.46
#  18   -1.24   -2.62    1.63    0.01   -0.30    0.00    0.00      -2.51    0.02   -0.47
#  19   -1.28   -3.26    1.70    0.01   -0.28    0.00    0.00      -3.11    0.02   -0.47
#  20   -1.20   -3.89    2.10    0.14   -0.28    0.00    0.00      -3.13    0.23   -0.46
#  21   -0.80   -2.53    0.77    0.20   -0.24    0.00    0.00      -2.60    0.34   -0.40
#  22   -0.99   -2.24    0.53    0.21   -0.26    0.00    0.00      -2.75    0.36   -0.45
#  23   -1.03   -0.64    0.60    0.17   -0.10    0.00    0.00      -0.99    0.48   -0.28
#  24   -0.75   -0.21    0.01   -0.01   -0.08    0.00    0.00      -1.03   -0.02   -0.28
#  25   -1.34   -0.20    0.01   -0.02   -0.06    0.00    0.00      -1.61   -0.09   -0.28
#  26   -0.64   -0.16    0.01    0.13   -0.04    0.00    0.00      -0.69    0.80   -0.23
#  27   -0.30   -0.73    0.46   -0.02   -0.11    0.00    0.00      -0.70   -0.04   -0.28
#  28   -0.51   -0.27    0.04    0.03   -0.07    0.00    0.00      -0.78    0.12   -0.28
#  29   -0.39   -0.40    0.05    0.22   -0.11    0.00    0.00      -0.63    0.56   -0.28
#  30    1.07   -0.06    0.00    0.49    0.37    0.00    0.00       1.86    0.79    0.59
#  31    1.24   -0.13    0.01    0.29    0.40    0.00    0.00       1.81    0.43    0.60
#  32   -1.93   -0.02    0.00    0.69    0.14    0.00    0.00      -1.11    2.46    0.50
#  33   -2.98   -0.06    0.01    0.50    0.24    0.00    0.00      -2.29    1.22    0.58
#  34    0.99   -1.28    3.03   -0.46   -0.11    0.00    0.00       2.17   -0.91   -0.21
#  35    0.32   -0.79    0.22   -0.21   -0.18    0.00    0.00      -0.64   -0.34   -0.28
#  36    0.54   -0.63    0.12    0.06   -0.16    0.00    0.00      -0.06    0.11   -0.28
#  37    1.19   -0.38    0.06    0.20   -0.14    0.00    0.00       0.94    0.42   -0.28
#  38    0.94   -0.81    0.44    0.21   -0.15    0.00    0.00       0.64    0.41   -0.28
#  39    0.70   -1.50    2.00    0.03   -0.18    0.00    0.00       1.05    0.04   -0.28
#  40    1.63   -0.60    0.28   -0.27   -0.13    0.00    0.00       0.91   -0.56   -0.28

@<TRIPOS>MOLECULE
             1492       100
   40    42     0     0     0



@<TRIPOS>ATOM
      1 C1         22.6227    17.8562    60.9134 C.3        1          -0.1630
      2 C2         23.2829    17.1969    62.1260 C.3        1           0.1579
      3 C3         23.6334    18.2678    63.1609 C.3        1          -0.1614
      4 N1         22.3574    16.2287    62.7195 N.pl3      1          -0.3846
      5 N2         21.0937    16.5333    63.2319 N.2        1          -0.2765
      6 C4         20.5313    15.4378    63.6854 C.2        1           0.1783
      7 C5         21.4792    14.3400    63.4602 C.2        1          -0.3637
      8 C6         21.2882    12.9276    63.8042 C.2        1           0.6129
      9 N3         20.7286    12.0865    62.9121 N.am       1          -0.8477
     10 O1         21.6353    12.5148    64.8952 O.2        1          -0.5417
     11 C7         22.5933    14.9083    62.8486 C.2        1           0.4111
     12 N4         23.7335    14.2410    62.4500 N.pl3      1          -0.8435
     13 C8         19.1907    15.3295    64.3086 C.ar       1          -0.0161
     14 C9         19.0713    14.8577    65.6265 C.ar       1          -0.0932
     15 C10        17.8548    14.7492    66.2200 C.ar       1          -0.1049
     16 C11        16.6933    15.1115    65.5142 C.ar       1          -0.0434
     17 C12        15.4232    15.0089    66.1062 C.ar       1          -0.1082
     18 C13        14.3176    15.3674    65.3977 C.ar       1          -0.1126
     19 C14        14.4239    15.8362    64.0896 C.ar       1          -0.1185
     20 C15        15.6367    15.9489    63.4828 C.ar       1          -0.1013
     21 C16        16.8016    15.5888    64.1835 C.ar       1          -0.0549
     22 C17        18.0687    15.6988    63.5901 C.ar       1          -0.0695
     23 H1         22.3730    17.0932    60.1761 H          1           0.0767
     24 H2         21.7138    18.3685    61.2283 H          1           0.0610
     25 H3         23.3113    18.5766    60.4717 H          1           0.0748
     26 H4         24.1920    16.6846    61.8110 H          1           0.0936
     27 H5         24.1037    17.7981    64.0247 H          1           0.0744
     28 H6         24.3222    18.9882    62.7194 H          1           0.0603
     29 H7         22.7244    18.7801    63.4759 H          1           0.0768
     30 H8         20.4522    12.4156    62.0426 H          1           0.4018
     31 H9         20.6022    11.1522    63.1397 H          1           0.4008
     32 H10        24.4602    14.7291    62.0324 H          1           0.4035
     33 H11        23.8083    13.2836    62.5875 H          1           0.4194
     34 H12        19.9585    14.5773    66.1746 H          1           0.1339
     35 H13        17.7791    14.3845    67.2337 H          1           0.1312
     36 H14        15.3245    14.6467    67.1189 H          1           0.1280
     37 H15        13.3430    15.2872    65.8563 H          1           0.1236
     38 H16        13.5308    16.1137    63.5495 H          1           0.1238
     39 H17        15.7043    16.3129    62.4682 H          1           0.1277
     40 H18        18.1662    16.0655    62.5788 H          1           0.1331
@<TRIPOS>BOND
     1    1    2 1
     2    1   23 1
     3    1   24 1
     4    1   25 1
     5    2    3 1
     6    2    4 1
     7    2   26 1
     8    3   27 1
     9    3   28 1
    10    3   29 1
    11    4   11 1
    12    4    5 1
    13    5    6 2
    14    6    7 1
    15    6   13 1
    16    7    8 1
    17    7   11 2
    18    8    9 am
    19    8   10 2
    20    9   30 1
    21    9   31 1
    22   11   12 1
    23   12   32 1
    24   12   33 1
    25   13   22 ar
    26   13   14 ar
    27   14   15 ar
    28   14   34 1
    29   15   16 ar
    30   15   35 1
    31   16   21 ar
    32   16   17 ar
    33   17   18 ar
    34   17   36 1
    35   18   19 ar
    36   18   37 1
    37   19   20 ar
    38   19   38 1
    39   20   21 ar
    40   20   39 1
    41   21   22 ar
    42   22   40 1
##########                 Name:                 1492
##########          Protonation:                  100
##########               SMILES:   CC(C)n1c(c(c(n1)c2ccc3ccccc3c2)C(=O)N)N
##########            Long Name:   5-amino-1-isopropyl-3-(2-naphthyl)pyrazole-4-carboxamide
##########          FlexRecCode: 1
##########               Number:                   18
##########   Ligand Source File: /raid1/people/rgc/Examples/tdt/part3/ligand22set/build/ligand22set-0000001.db2.g
##########           GlobalRank: 15
##########                 Rank:                    3
##########               Setnum:                   17
##########             Matchnum:                 6042
##########                Cloud:                    1
##########        Electrostatic:           -11.351906
##########        Van der Waals:           -28.595036
##########  Ligand Polar Desolv:             6.160131
########## Ligand Apolar Desolv:            -2.676928
##########      Internal Energy:             0.000000
##########      Receptor Energy: 0.0
########## Receptor Desolvation:             0.000000
########## Receptor Hydrophobic:             0.000000
##########         Total Energy: -36.46
##########        Ligand Charge:             0.000000
##########            Arbitrary:    +999.9990
##########     heavy atom count:   22
##########           pose count:   10
##########        Ligand Energy:             0.000000
# num electro vdwattr vdwrepu polsolv apolsol rdesolv rhydroe totalscore fullpol fullapo
#   1    1.51   -1.08    0.53   -0.06   -0.07    0.00    0.00       0.83   -0.16   -0.19
#   2   -0.65   -0.74    0.07    0.10   -0.14    0.00    0.00      -1.37    0.25   -0.36
#   3    0.75   -1.22    0.18   -0.15   -0.08    0.00    0.00      -0.51   -0.33   -0.19
#   4   -0.39   -1.46    0.26    0.35    0.39    0.00    0.00      -0.85    0.84    0.93
#   5   -2.01   -2.12    0.76    0.81    0.53    0.00    0.00      -2.03    1.75    1.14
#   6    1.40   -1.90    0.61   -0.51   -0.40    0.00    0.00      -0.79   -0.98   -0.77
#   7   -1.52   -1.80    0.33    1.15   -0.24    0.00    0.00      -2.07    1.98   -0.42
#   8    2.48   -3.06    1.25   -1.98   -0.34    0.00    0.00      -1.65   -3.07   -0.53
#   9   -0.33   -5.09    6.23    0.22    1.28    0.00    0.00       2.30    0.33    1.96
#  10   -4.32   -5.73    5.29    3.79    0.27    0.00    0.00      -0.71    5.82    0.41
#  11    0.50   -1.74    0.55   -0.40   -1.02    0.00    0.00      -2.11   -0.84   -2.17
#  12    1.93   -2.04    0.60   -0.95    0.43    0.00    0.00      -0.02   -2.01    0.91
#  13   -0.17   -1.97    0.40    0.13   -0.23    0.00    0.00      -1.83    0.23   -0.40
#  14   -0.70   -3.18    1.67    0.46   -0.26    0.00    0.00      -2.00    0.75   -0.42
#  15   -0.53   -3.16    0.76    0.31   -0.29    0.00    0.00      -2.92    0.48   -0.45
#  16   -0.41   -2.67    0.78    0.20   -0.26    0.00    0.00      -2.37    0.30   -0.40
#  17   -0.86   -2.95    0.96    0.13   -0.29    0.00    0.00      -3.01    0.20   -0.46
#  18   -1.16   -2.41    0.96    0.01   -0.31    0.00    0.00      -2.91    0.02   -0.47
#  19   -1.29   -2.86    1.33    0.01   -0.28    0.00    0.00      -3.09    0.02   -0.47
#  20   -1.24   -3.46    1.69    0.14   -0.28    0.00    0.00      -3.15    0.23   -0.46
#  21   -0.77   -2.58    0.92    0.20   -0.24    0.00    0.00      -2.46    0.34   -0.40
#  22   -1.00   -2.15    0.45    0.21   -0.27    0.00    0.00      -2.76    0.36   -0.45
#  23   -0.61   -1.00    2.77    0.15   -0.09    0.00    0.00       1.21    0.48   -0.28
#  24   -0.62   -0.30    0.08   -0.01   -0.08    0.00    0.00      -0.93   -0.02   -0.28
#  25   -1.00   -0.19    0.02   -0.02   -0.06    0.00    0.00      -1.26   -0.09   -0.28
#  26   -0.41   -0.21    0.02    0.16   -0.05    0.00    0.00      -0.49    0.80   -0.23
#  27   -0.11   -0.71    0.23   -0.02   -0.13    0.00    0.00      -0.73   -0.04   -0.28
#  28   -0.49   -0.30    0.03    0.04   -0.09    0.00    0.00      -0.81    0.12   -0.28
#  29   -0.36   -0.41    0.09    0.22   -0.11    0.00    0.00      -0.57    0.56   -0.28
#  30    0.92   -0.05    0.00    0.40    0.30    0.00    0.00       1.56    0.79    0.59
#  31   -2.97   -0.18    0.04    0.28    0.40    0.00    0.00      -2.43    0.43    0.60
#  32   -1.57   -0.02    0.00    0.70    0.14    0.00    0.00      -0.74    2.46    0.50
#  33   -1.53   -0.05    0.00    0.54    0.26    0.00    0.00      -0.78    1.22    0.58
#  34    0.92   -1.45    3.82   -0.51   -0.12    0.00    0.00       2.67   -0.91   -0.21
#  35   -0.03   -0.97    0.33   -0.22   -0.18    0.00    0.00      -1.07   -0.34   -0.28
#  36    0.43   -0.77    0.24    0.06   -0.16    0.00    0.00      -0.20    0.11   -0.28
#  37    1.13   -0.41    0.06    0.21   -0.14    0.00    0.00       0.86    0.42   -0.28
#  38    1.04   -0.63    0.21    0.20   -0.14    0.00    0.00       0.69    0.41   -0.28
#  39    0.81   -1.24    1.54    0.02   -0.17    0.00    0.00       0.96    0.04   -0.28
#  40    1.87   -0.51    0.14   -0.27   -0.13    0.00    0.00       1.10   -0.56   -0.28

@<TRIPOS>MOLECULE
             1492       100
   40    42     0     0     0



@<TRIPOS>ATOM
      1 C1         22.8125    17.0965    61.1810 C.3        1          -0.1630
      2 C2         23.0305    16.9904    62.6918 C.3        1           0.1579
      3 C3         22.8262    18.3637    63.3344 C.3        1          -0.1614
      4 N1         22.0713    16.0387    63.2579 N.pl3      1          -0.3846
      5 N2         20.7999    16.3661    63.7361 N.2        1          -0.2765
      6 C4         20.2050    15.2806    64.1720 C.2        1           0.1783
      7 C5         21.1383    14.1657    63.9709 C.2        1          -0.3637
      8 C6         20.9118    12.7566    64.3070 C.2        1           0.6129
      9 N3         19.7445    12.3755    64.8623 N.am       1          -0.8477
     10 O1         21.7781    11.9312    64.0844 O.2        1          -0.5417
     11 C7         22.2791    14.7140    63.3911 C.2        1           0.4111
     12 N4         23.4173    14.0261    63.0227 N.pl3      1          -0.8435
     13 C8         18.8460    15.1964    64.7580 C.ar       1          -0.0161
     14 C9         18.6818    14.7252    66.0712 C.ar       1          -0.0932
     15 C10        17.4476    14.6385    66.6310 C.ar       1          -0.1049
     16 C11        16.3128    15.0232    65.8941 C.ar       1          -0.0434
     17 C12        15.0253    14.9434    66.4509 C.ar       1          -0.1082
     18 C13        13.9464    15.3233    65.7130 C.ar       1          -0.1126
     19 C14        14.0973    15.7917    64.4091 C.ar       1          -0.1185
     20 C15        15.3282    15.8827    63.8361 C.ar       1          -0.1013
     21 C16        16.4666    15.5001    64.5678 C.ar       1          -0.0549
     22 C17        17.7513    15.5874    64.0096 C.ar       1          -0.0695
     23 H1         22.9581    16.1181    60.7233 H          1           0.0767
     24 H2         21.7980    17.4426    60.9839 H          1           0.0610
     25 H3         23.5262    17.8045    60.7599 H          1           0.0748
     26 H4         24.0452    16.6443    62.8890 H          1           0.0936
     27 H5         22.9815    18.2880    64.4106 H          1           0.0744
     28 H6         23.5399    19.0718    62.9132 H          1           0.0603
     29 H7         21.8115    18.7098    63.1372 H          1           0.0768
     30 H8         19.0541    13.0334    65.0396 H          1           0.4018
     31 H9         19.5947    11.4434    65.0848 H          1           0.4008
     32 H10        24.1641    14.5013    62.6262 H          1           0.4035
     33 H11        23.4706    13.0674    63.1606 H          1           0.4194
     34 H12        19.5483    14.4276    66.6429 H          1           0.1339
     35 H13        17.3373    14.2740    67.6416 H          1           0.1312
     36 H14        14.8921    14.5819    67.4599 H          1           0.1280
     37 H15        12.9583    15.2606    66.1445 H          1           0.1236
     38 H16        13.2246    16.0865    63.8452 H          1           0.1238
     39 H17        15.4304    16.2467    62.8244 H          1           0.1277
     40 H18        17.8833    15.9535    63.0020 H          1           0.1331
@<TRIPOS>BOND
     1    1    2 1
     2    1   23 1
     3    1   24 1
     4    1   25 1
     5    2    3 1
     6    2    4 1
     7    2   26 1
     8    3   27 1
     9    3   28 1
    10    3   29 1
    11    4   11 1
    12    4    5 1
    13    5    6 2
    14    6    7 1
    15    6   13 1
    16    7    8 1
    17    7   11 2
    18    8    9 am
    19    8   10 2
    20    9   30 1
    21    9   31 1
    22   11   12 1
    23   12   32 1
    24   12   33 1
    25   13   22 ar
    26   13   14 ar
    27   14   15 ar
    28   14   34 1
    29   15   16 ar
    30   15   35 1
    31   16   21 ar
    32   16   17 ar
    33   17   18 ar
    34   17   36 1
    35   18   19 ar
    36   18   37 1
    37   19   20 ar
    38   19   38 1
    39   20   21 ar
    40   20   39 1
    41   21   22 ar
    42   22   40 1
##########                 Name:                 1492
##########          Protonation:                  100
##########               SMILES:   CC(C)n1c(c(c(n1)c2ccc3ccccc3c2)C(=O)N)N
##########            Long Name:   5-amino-1-isopropyl-3-(2-naphthyl)pyrazole-4-carboxamide
##########          FlexRecCode: 1
##########               Number:                   18
##########   Ligand Source File: /raid1/people/rgc/Examples/tdt/part3/ligand22set/build/ligand22set-0000001.db2.g
##########           GlobalRank: 15
##########                 Rank:                    4
##########               Setnum:                   17
##########             Matchnum:                67762
##########                Cloud:                    1
##########        Electrostatic:           -11.359015
##########        Van der Waals:           -27.844606
##########  Ligand Polar Desolv:             5.886111
########## Ligand Apolar Desolv:            -2.906454
##########      Internal Energy:             0.000000
##########      Receptor Energy: 0.0
########## Receptor Desolvation:             0.000000
########## Receptor Hydrophobic:             0.000000
##########         Total Energy: -36.22
##########        Ligand Charge:             0.000000
##########            Arbitrary:    +999.9990
##########     heavy atom count:   22
##########           pose count:   10
##########        Ligand Energy:             0.000000
# num electro vdwattr vdwrepu polsolv apolsol rdesolv rhydroe totalscore fullpol fullapo
#   1    2.24   -0.89    0.11   -0.07   -0.09    0.00    0.00       1.31   -0.16   -0.19
#   2   -1.02   -0.76    0.06    0.10   -0.15    0.00    0.00      -1.77    0.25   -0.36
#   3    1.24   -1.88    0.67   -0.15   -0.09    0.00    0.00      -0.22   -0.33   -0.19
#   4   -0.46   -1.49    0.25    0.37    0.41    0.00    0.00      -0.94    0.84    0.93
#   5   -3.71   -3.63    4.67    0.82    0.53    0.00    0.00      -1.31    1.75    1.14
#   6    2.00   -2.00    0.59   -0.50   -0.39    0.00    0.00      -0.30   -0.98   -0.77
#   7   -1.71   -1.62    0.36    1.07   -0.23    0.00    0.00      -2.13    1.98   -0.42
#   8    2.40   -1.99    0.33   -1.88   -0.32    0.00    0.00      -1.46   -3.07   -0.53
#   9   -2.18   -3.01    1.20    0.21    1.23    0.00    0.00      -2.55    0.33    1.96
#  10   -2.21   -2.60    0.58    3.62    0.26    0.00    0.00      -0.36    5.82    0.41
#  11    0.38   -1.77    1.10   -0.35   -0.92    0.00    0.00      -1.57   -0.84   -2.17
#  12    2.07   -2.32    2.90   -0.83    0.38    0.00    0.00       2.19   -2.01    0.91
#  13   -0.22   -2.01    0.38    0.13   -0.23    0.00    0.00      -1.95    0.23   -0.40
#  14   -0.85   -2.71    0.93    0.46   -0.26    0.00    0.00      -2.43    0.75   -0.42
#  15   -0.66   -2.95    0.62    0.31   -0.29    0.00    0.00      -2.97    0.48   -0.45
#  16   -0.43   -2.65    0.77    0.20   -0.26    0.00    0.00      -2.38    0.30   -0.40
#  17   -0.80   -3.05    0.99    0.13   -0.29    0.00    0.00      -3.03    0.20   -0.46
#  18   -1.08   -2.45    0.83    0.01   -0.31    0.00    0.00      -2.99    0.02   -0.47
#  19   -1.26   -2.53    0.96    0.01   -0.30    0.00    0.00      -3.11    0.02   -0.47
#  20   -1.18   -3.41    1.77    0.14   -0.28    0.00    0.00      -2.96    0.23   -0.46
#  21   -0.82   -2.60    0.84    0.21   -0.24    0.00    0.00      -2.61    0.34   -0.40
#  22   -1.16   -2.46    0.62    0.21   -0.27    0.00    0.00      -3.05    0.36   -0.45
#  23   -1.01   -0.52    0.34    0.17   -0.10    0.00    0.00      -1.12    0.48   -0.28
#  24   -0.83   -0.29    0.03   -0.01   -0.10    0.00    0.00      -1.19   -0.02   -0.28
#  25   -1.48   -0.22    0.01   -0.02   -0.07    0.00    0.00      -1.79   -0.09   -0.28
#  26   -0.64   -0.17    0.01    0.16   -0.05    0.00    0.00      -0.70    0.80   -0.23
#  27   -0.25   -0.83    0.41   -0.02   -0.14    0.00    0.00      -0.83   -0.04   -0.28
#  28   -0.82   -0.64    0.43    0.04   -0.10    0.00    0.00      -1.09    0.12   -0.28
#  29   -0.63   -1.08    1.47    0.26   -0.13    0.00    0.00      -0.11    0.56   -0.28
#  30    1.72   -0.04    0.00    0.36    0.27    0.00    0.00       2.30    0.79    0.59
#  31   -0.98   -0.08    0.00    0.26    0.36    0.00    0.00      -0.44    0.43    0.60
#  32   -1.83   -0.02    0.00    0.55    0.11    0.00    0.00      -1.19    2.46    0.50
#  33   -1.22   -0.04    0.00    0.43    0.20    0.00    0.00      -0.62    1.22    0.58
#  34    1.04   -1.02    1.58   -0.48   -0.11    0.00    0.00       1.00   -0.91   -0.21
#  35    0.10   -0.88    0.25   -0.22   -0.18    0.00    0.00      -0.93   -0.34   -0.28
#  36    0.29   -0.86    0.34    0.07   -0.17    0.00    0.00      -0.33    0.11   -0.28
#  37    1.06   -0.51    0.14    0.21   -0.14    0.00    0.00       0.75    0.42   -0.28
#  38    1.10   -0.51    0.14    0.20   -0.14    0.00    0.00       0.80    0.41   -0.28
#  39    0.35   -1.76    6.13    0.02   -0.17    0.00    0.00       4.58    0.04   -0.28
#  40    2.13   -0.64    0.24   -0.30   -0.15    0.00    0.00       1.28   -0.56   -0.28

@<TRIPOS>MOLECULE
             1492       100
   40    42     0     0     0



@<TRIPOS>ATOM
      1 C1         21.9354    18.1454    60.8588 C.3        1          -0.1630
      2 C2         22.2970    17.9623    62.3342 C.3        1           0.1579
      3 C3         22.0211    19.2623    63.0922 C.3        1          -0.1614
      4 N1         21.4874    16.8829    62.9051 N.pl3      1          -0.3846
      5 N2         20.2385    17.0474    63.5097 N.2        1          -0.2765
      6 C4         19.7913    15.8807    63.9111 C.2        1           0.1783
      7 C5         20.8048    14.8820    63.5509 C.2        1          -0.3637
      8 C6         20.7447    13.4381    63.7985 C.2        1           0.6129
      9 N3         19.6734    12.9047    64.4183 N.am       1          -0.8477
     10 O1         21.6622    12.7213    63.4441 O.2        1          -0.5417
     11 C7         21.8316    15.5802    62.9214 C.2        1           0.4111
     12 N4         22.9926    15.0372    62.4099 N.pl3      1          -0.8435
     13 C8         18.5045    15.6206    64.5994 C.ar       1          -0.0161
     14 C9         18.5042    15.0494    65.8828 C.ar       1          -0.0932
     15 C10        17.3390    14.8012    66.5346 C.ar       1          -0.1049
     16 C11        16.1113    15.1168    65.9249 C.ar       1          -0.0434
     17 C12        14.8923    14.8702    66.5786 C.ar       1          -0.1082
     18 C13        13.7204    15.1867    65.9628 C.ar       1          -0.1126
     19 C14        13.7085    15.7531    64.6895 C.ar       1          -0.1185
     20 C15        14.8688    16.0061    64.0251 C.ar       1          -0.1013
     21 C16        16.0995    15.6934    64.6296 C.ar       1          -0.0549
     22 C17        17.3148    15.9473    63.9753 C.ar       1          -0.0695
     23 H1         22.1319    17.2192    60.3188 H          1           0.0767
     24 H2         20.8789    18.3992    60.7725 H          1           0.0610
     25 H3         22.5377    18.9485    60.4341 H          1           0.0748
     26 H4         23.3536    17.7086    62.4205 H          1           0.0936
     27 H5         22.2787    19.1318    64.1432 H          1           0.0744
     28 H6         22.6234    20.0654    62.6675 H          1           0.0603
     29 H7         20.9644    19.5160    63.0059 H          1           0.0768
     30 H8         18.9422    13.4760    64.7007 H          1           0.4018
     31 H9         19.6336    11.9495    64.5822 H          1           0.4008
     32 H10        23.6522    15.6108    61.9896 H          1           0.4035
     33 H11        23.1491    14.0818    62.4709 H          1           0.4194
     34 H12        19.4429    14.8041    66.3572 H          1           0.1339
     35 H13        17.3550    14.3614    67.5208 H          1           0.1312
     36 H14        14.8851    14.4311    67.5653 H          1           0.1280
     37 H15        12.7854    14.9957    66.4685 H          1           0.1236
     38 H16        12.7648    15.9945    64.2232 H          1           0.1238
     39 H17        14.8448    16.4448    63.0384 H          1           0.1277
     40 H18        17.3206    16.3906    62.9904 H          1           0.1331
@<TRIPOS>BOND
     1    1    2 1
     2    1   23 1
     3    1   24 1
     4    1   25 1
     5    2    3 1
     6    2    4 1
     7    2   26 1
     8    3   27 1
     9    3   28 1
    10    3   29 1
    11    4   11 1
    12    4    5 1
    13    5    6 2
    14    6    7 1
    15    6   13 1
    16    7    8 1
    17    7   11 2
    18    8    9 am
    19    8   10 2
    20    9   30 1
    21    9   31 1
    22   11   12 1
    23   12   32 1
    24   12   33 1
    25   13   22 ar
    26   13   14 ar
    27   14   15 ar
    28   14   34 1
    29   15   16 ar
    30   15   35 1
    31   16   21 ar
    32   16   17 ar
    33   17   18 ar
    34   17   36 1
    35   18   19 ar
    36   18   37 1
    37   19   20 ar
    38   19   38 1
    39   20   21 ar
    40   20   39 1
    41   21   22 ar
    42   22   40 1
##########                 Name:                 1492
##########          Protonation:                  100
##########               SMILES:   CC(C)n1c(c(c(n1)c2ccc3ccccc3c2)C(=O)N)N
##########            Long Name:   5-amino-1-isopropyl-3-(2-naphthyl)pyrazole-4-carboxamide
##########          FlexRecCode: 1
##########               Number:                   18
##########   Ligand Source File: /raid1/people/rgc/Examples/tdt/part3/ligand22set/build/ligand22set-0000001.db2.g
##########           GlobalRank: 15
##########                 Rank:                    5
##########               Setnum:                   23
##########             Matchnum:                63239
##########                Cloud:                    1
##########        Electrostatic:            -8.739414
##########        Van der Waals:           -31.051308
##########  Ligand Polar Desolv:             6.152363
########## Ligand Apolar Desolv:            -2.334766
##########      Internal Energy:             0.000000
##########      Receptor Energy: 0.0
########## Receptor Desolvation:             0.000000
########## Receptor Hydrophobic:             0.000000
##########         Total Energy: -35.97
##########        Ligand Charge:             0.000000
##########            Arbitrary:    +999.9990
##########     heavy atom count:   22
##########           pose count:   10
##########        Ligand Energy:             0.000000
# num electro vdwattr vdwrepu polsolv apolsol rdesolv rhydroe totalscore fullpol fullapo
#   1    1.59   -0.75    0.05   -0.07   -0.08    0.00    0.00       0.74   -0.16   -0.19
#   2   -1.04   -0.66    0.06    0.09   -0.13    0.00    0.00      -1.68    0.25   -0.36
#   3    0.98   -1.05    0.35   -0.11   -0.06    0.00    0.00       0.11   -0.33   -0.19
#   4    0.56   -1.41    0.40    0.34    0.37    0.00    0.00       0.26    0.84    0.93
#   5   -1.22   -1.69    0.35    0.78    0.51    0.00    0.00      -1.28    1.75    1.14
#   6    1.17   -1.66    0.34   -0.48   -0.38    0.00    0.00      -1.02   -0.98   -0.77
#   7   -1.05   -1.80    0.60    1.10   -0.23    0.00    0.00      -1.39    1.98   -0.42
#   8    2.49   -2.56    0.57   -1.93   -0.33    0.00    0.00      -1.77   -3.07   -0.53
#   9   -3.09   -4.27    1.94    0.22    1.31    0.00    0.00      -3.88    0.33    1.96
#  10   -3.01   -4.39    3.43    3.70    0.26    0.00    0.00      -0.02    5.82    0.41
#  11   -0.29   -2.02    1.76   -0.37   -0.95    0.00    0.00      -1.86   -0.84   -2.17
#  12    3.44   -2.10    0.99   -0.90    0.41    0.00    0.00       1.83   -2.01    0.91
#  13   -0.17   -1.82    0.34    0.13   -0.22    0.00    0.00      -1.75    0.23   -0.40
#  14   -0.79   -2.97    1.88    0.44   -0.25    0.00    0.00      -1.68    0.75   -0.42
#  15   -0.73   -2.75    0.59    0.30   -0.29    0.00    0.00      -2.87    0.48   -0.45
#  16   -0.47   -2.49    0.71    0.20   -0.26    0.00    0.00      -2.32    0.30   -0.40
#  17   -0.97   -2.84    1.08    0.13   -0.29    0.00    0.00      -2.91    0.20   -0.46
#  18   -1.24   -2.62    1.63    0.01   -0.30    0.00    0.00      -2.51    0.02   -0.47
#  19   -1.28   -3.26    1.70    0.01   -0.28    0.00    0.00      -3.11    0.02   -0.47
#  20   -1.20   -3.89    2.10    0.14   -0.28    0.00    0.00      -3.13    0.23   -0.46
#  21   -0.80   -2.53    0.77    0.20   -0.24    0.00    0.00      -2.60    0.34   -0.40
#  22   -0.99   -2.24    0.53    0.21   -0.26    0.00    0.00      -2.75    0.36   -0.45
#  23   -0.87   -0.22    0.02    0.12   -0.07    0.00    0.00      -1.02    0.48   -0.28
#  24   -0.38   -0.36    0.05   -0.01   -0.11    0.00    0.00      -0.81   -0.02   -0.28
#  25   -1.02   -0.18    0.01   -0.02   -0.05    0.00    0.00      -1.26   -0.09   -0.28
#  26   -0.87   -0.25    0.06    0.17   -0.05    0.00    0.00      -0.93    0.80   -0.23
#  27   -0.34   -0.23    0.03   -0.01   -0.06    0.00    0.00      -0.61   -0.04   -0.28
#  28   -0.49   -0.26    0.09    0.02   -0.05    0.00    0.00      -0.69    0.12   -0.28
#  29   -0.35   -0.80    0.71    0.20   -0.10    0.00    0.00      -0.33    0.56   -0.28
#  30    1.07   -0.06    0.00    0.49    0.37    0.00    0.00       1.86    0.79    0.59
#  31    1.24   -0.13    0.01    0.29    0.40    0.00    0.00       1.81    0.43    0.60
#  32   -1.93   -0.02    0.00    0.69    0.14    0.00    0.00      -1.11    2.46    0.50
#  33   -2.98   -0.06    0.01    0.50    0.24    0.00    0.00      -2.29    1.22    0.58
#  34    0.99   -1.28    3.03   -0.46   -0.11    0.00    0.00       2.17   -0.91   -0.21
#  35    0.32   -0.79    0.22   -0.21   -0.18    0.00    0.00      -0.64   -0.34   -0.28
#  36    0.54   -0.63    0.12    0.06   -0.16    0.00    0.00      -0.06    0.11   -0.28
#  37    1.19   -0.38    0.06    0.20   -0.14    0.00    0.00       0.94    0.42   -0.28
#  38    0.94   -0.81    0.44    0.21   -0.15    0.00    0.00       0.64    0.41   -0.28
#  39    0.70   -1.50    2.00    0.03   -0.18    0.00    0.00       1.05    0.04   -0.28
#  40    1.63   -0.60    0.28   -0.27   -0.13    0.00    0.00       0.91   -0.56   -0.28

@<TRIPOS>MOLECULE
             1492       100
   40    42     0     0     0



@<TRIPOS>ATOM
      1 C1         22.6511    18.5901    62.1549 C.3        1          -0.1630
      2 C2         23.2829    17.1969    62.1260 C.3        1           0.1579
      3 C3         24.5873    17.2117    62.9254 C.3        1          -0.1614
      4 N1         22.3574    16.2287    62.7195 N.pl3      1          -0.3846
      5 N2         21.0937    16.5333    63.2319 N.2        1          -0.2765
      6 C4         20.5313    15.4378    63.6854 C.2        1           0.1783
      7 C5         21.4792    14.3400    63.4602 C.2        1          -0.3637
      8 C6         21.2882    12.9276    63.8042 C.2        1           0.6129
      9 N3         20.7286    12.0865    62.9121 N.am       1          -0.8477
     10 O1         21.6353    12.5148    64.8952 O.2        1          -0.5417
     11 C7         22.5933    14.9083    62.8486 C.2        1           0.4111
     12 N4         23.7335    14.2410    62.4500 N.pl3      1          -0.8435
     13 C8         19.1907    15.3295    64.3086 C.ar       1          -0.0161
     14 C9         19.0713    14.8577    65.6265 C.ar       1          -0.0932
     15 C10        17.8548    14.7492    66.2200 C.ar       1          -0.1049
     16 C11        16.6933    15.1115    65.5142 C.ar       1          -0.0434
     17 C12        15.4232    15.0089    66.1062 C.ar       1          -0.1082
     18 C13        14.3176    15.3674    65.3977 C.ar       1          -0.1126
     19 C14        14.4239    15.8362    64.0896 C.ar       1          -0.1185
     20 C15        15.6367    15.9489    63.4828 C.ar       1          -0.1013
     21 C16        16.8016    15.5888    64.1835 C.ar       1          -0.0549
     22 C17        18.0687    15.6988    63.5901 C.ar       1          -0.0695
     23 H1         21.7218    18.5796    61.5854 H          1           0.0767
     24 H2         22.4419    18.8728    63.1865 H          1           0.0610
     25 H3         23.3397    19.3106    61.7132 H          1           0.0748
     26 H4         23.4922    16.9143    61.0943 H          1           0.0936
     27 H5         25.0374    16.2192    62.9047 H          1           0.0744
     28 H6         25.2760    17.9321    62.4837 H          1           0.0603
     29 H7         24.3781    17.4944    63.9570 H          1           0.0768
     30 H8         20.4522    12.4156    62.0426 H          1           0.4018
     31 H9         20.6022    11.1522    63.1397 H          1           0.4008
     32 H10        24.4602    14.7291    62.0324 H          1           0.4035
     33 H11        23.8083    13.2836    62.5875 H          1           0.4194
     34 H12        19.9585    14.5773    66.1746 H          1           0.1339
     35 H13        17.7791    14.3845    67.2337 H          1           0.1312
     36 H14        15.3245    14.6467    67.1189 H          1           0.1280
     37 H15        13.3430    15.2872    65.8563 H          1           0.1236
     38 H16        13.5308    16.1137    63.5495 H          1           0.1238
     39 H17        15.7043    16.3129    62.4682 H          1           0.1277
     40 H18        18.1662    16.0655    62.5788 H          1           0.1331
@<TRIPOS>BOND
     1    1    2 1
     2    1   23 1
     3    1   24 1
     4    1   25 1
     5    2    3 1
     6    2    4 1
     7    2   26 1
     8    3   27 1
     9    3   28 1
    10    3   29 1
    11    4   11 1
    12    4    5 1
    13    5    6 2
    14    6    7 1
    15    6   13 1
    16    7    8 1
    17    7   11 2
    18    8    9 am
    19    8   10 2
    20    9   30 1
    21    9   31 1
    22   11   12 1
    23   12   32 1
    24   12   33 1
    25   13   22 ar
    26   13   14 ar
    27   14   15 ar
    28   14   34 1
    29   15   16 ar
    30   15   35 1
    31   16   21 ar
    32   16   17 ar
    33   17   18 ar
    34   17   36 1
    35   18   19 ar
    36   18   37 1
    37   19   20 ar
    38   19   38 1
    39   20   21 ar
    40   20   39 1
    41   21   22 ar
    42   22   40 1
##########                 Name:                 1492
##########          Protonation:                  100
##########               SMILES:   CC(C)n1c(c(c(n1)c2ccc3ccccc3c2)C(=O)N)N
##########            Long Name:   5-amino-1-isopropyl-3-(2-naphthyl)pyrazole-4-carboxamide
##########          FlexRecCode: 1
##########               Number:                   17
##########   Ligand Source File: /raid1/people/rgc/Examples/tdt/part3/ligand22set/build/ligand22set-0000001.db2.g
##########           GlobalRank: 21
##########                 Rank:                    1
##########               Setnum:                   17
##########             Matchnum:                 6450
##########                Cloud:                    1
##########        Electrostatic:            -9.417154
##########        Van der Waals:           -21.046366
##########  Ligand Polar Desolv:             5.957219
########## Ligand Apolar Desolv:            -2.744478
##########      Internal Energy:             0.000000
##########      Receptor Energy: 0.0
########## Receptor Desolvation:             0.000000
########## Receptor Hydrophobic:             0.000000
##########         Total Energy: -27.25
##########        Ligand Charge:             0.000000
##########            Arbitrary:    +999.9990
##########     heavy atom count:   22
##########           pose count:   10
##########        Ligand Energy:             0.000000
# num electro vdwattr vdwrepu polsolv apolsol rdesolv rhydroe totalscore fullpol fullapo
#   1    1.84   -1.46    1.09   -0.06   -0.08    0.00    0.00       1.33   -0.16   -0.19
#   2   -0.92   -0.71    0.08    0.10   -0.14    0.00    0.00      -1.59    0.25   -0.36
#   3    1.23   -0.98    0.11   -0.14   -0.08    0.00    0.00       0.13   -0.33   -0.19
#   4   -0.08   -1.42    0.29    0.35    0.39    0.00    0.00      -0.48    0.84    0.93
#   5   -2.16   -2.07    0.70    0.80    0.52    0.00    0.00      -2.21    1.75    1.14
#   6    1.55   -1.86    0.51   -0.49   -0.38    0.00    0.00      -0.67   -0.98   -0.77
#   7   -1.56   -1.71    0.33    1.13   -0.24    0.00    0.00      -2.05    1.98   -0.42
#   8    2.60   -2.71    1.16   -1.93   -0.33    0.00    0.00      -1.21   -3.07   -0.53
#   9   -1.94   -4.88    9.68    0.21    1.25    0.00    0.00       4.32    0.33    1.96
#  10   -3.22   -3.96    1.91    3.68    0.26    0.00    0.00      -1.33    5.82    0.41
#  11    0.37   -1.72    0.72   -0.38   -0.99    0.00    0.00      -2.00   -0.84   -2.17
#  12    1.86   -1.82    0.54   -0.91    0.41    0.00    0.00       0.09   -2.01    0.91
#  13   -0.20   -1.98    0.41    0.13   -0.23    0.00    0.00      -1.87    0.23   -0.40
#  14   -0.89   -3.03    1.60    0.46   -0.26    0.00    0.00      -2.11    0.75   -0.42
#  15   -0.85   -2.92    0.62    0.31   -0.29    0.00    0.00      -3.13    0.48   -0.45
#  16   -0.50   -2.52    0.63    0.20   -0.26    0.00    0.00      -2.45    0.30   -0.40
#  17   -1.04   -2.71    0.74    0.13   -0.29    0.00    0.00      -3.18    0.20   -0.46
#  18   -1.20   -2.31    0.77    0.01   -0.31    0.00    0.00      -3.04    0.02   -0.47
#  19   -1.25   -3.00    1.53    0.01   -0.28    0.00    0.00      -2.99    0.02   -0.47
#  20   -1.14   -3.80    2.15    0.14   -0.28    0.00    0.00      -2.93    0.23   -0.46
#  21   -0.81   -2.59    0.82    0.20   -0.24    0.00    0.00      -2.61    0.34   -0.40
#  22   -1.05   -2.30    0.53    0.21   -0.27    0.00    0.00      -2.88    0.36   -0.45
#  23   -0.69   -1.57    6.73    0.17   -0.10    0.00    0.00       4.53    0.48   -0.28
#  24   -0.75   -0.40    0.15   -0.01   -0.10    0.00    0.00      -1.11   -0.02   -0.28
#  25   -1.24   -0.28    0.05   -0.03   -0.08    0.00    0.00      -1.57   -0.09   -0.28
#  26   -0.54   -0.17    0.01    0.15   -0.04    0.00    0.00      -0.60    0.80   -0.23
#  27   -0.29   -0.49    0.09   -0.02   -0.12    0.00    0.00      -0.83   -0.04   -0.28
#  28   -0.72   -0.23    0.02    0.03   -0.07    0.00    0.00      -0.97    0.12   -0.28
#  29   -0.63   -0.38    0.09    0.19   -0.09    0.00    0.00      -0.82    0.56   -0.28
#  30    1.47   -0.04    0.00    0.38    0.28    0.00    0.00       2.08    0.79    0.59
#  31   -0.90   -0.13    0.02    0.27    0.38    0.00    0.00      -0.36    0.43    0.60
#  32   -1.58   -0.02    0.00    0.65    0.13    0.00    0.00      -0.82    2.46    0.50
#  33   -1.27   -0.04    0.00    0.50    0.24    0.00    0.00      -0.57    1.22    0.58
#  34    1.09   -1.40    4.36   -0.50   -0.11    0.00    0.00       3.44   -0.91   -0.21
#  35    0.50   -0.92    0.36   -0.22   -0.18    0.00    0.00      -0.46   -0.34   -0.28
#  36    0.74   -0.70    0.19    0.06   -0.16    0.00    0.00       0.13    0.11   -0.28
#  37    1.16   -0.40    0.05    0.21   -0.14    0.00    0.00       0.89    0.42   -0.28
#  38    1.09   -0.65    0.21    0.21   -0.14    0.00    0.00       0.72    0.41   -0.28
#  39    0.76   -1.43    1.76    0.02   -0.17    0.00    0.00       0.95    0.04   -0.28
#  40    1.74   -0.61    0.25   -0.28   -0.14    0.00    0.00       0.96   -0.56   -0.28

@<TRIPOS>MOLECULE
             1492       100
   40    42     0     0     0



@<TRIPOS>ATOM
      1 C1         22.5849    17.1625    60.7272 C.3        1          -0.1630
      2 C2         22.8281    17.2527    62.2351 C.3        1           0.1579
      3 C3         22.5518    18.6800    62.7118 C.3        1          -0.1614
      4 N1         21.9337    16.3238    62.9304 N.pl3      1          -0.3846
      5 N2         20.6514    16.6342    63.3908 N.2        1          -0.2765
      6 C4         20.1268    15.5776    63.9657 C.2        1           0.1783
      7 C5         21.1212    14.5012    63.8818 C.2        1          -0.3637
      8 C6         20.9821    13.1327    64.3892 C.2        1           0.6129
      9 N3         19.8462    12.7561    65.0093 N.am       1          -0.8477
     10 O1         21.8923    12.3368    64.2504 O.2        1          -0.5417
     11 C7         22.2204    15.0389    63.2178 C.2        1           0.4111
     12 N4         23.3922    14.3771    62.9123 N.pl3      1          -0.8435
     13 C8         18.7827    15.4881    64.5843 C.ar       1          -0.0161
     14 C9         18.6632    15.1711    65.9477 C.ar       1          -0.0932
     15 C10        17.4435    15.0830    66.5381 C.ar       1          -0.1049
     16 C11        16.2788    15.3107    65.7830 C.ar       1          -0.0434
     17 C12        15.0054    15.2261    66.3707 C.ar       1          -0.1082
     18 C13        13.8967    15.4521    65.6140 C.ar       1          -0.1126
     19 C14        14.0032    15.7668    64.2605 C.ar       1          -0.1185
     20 C15        15.2192    15.8572    63.6564 C.ar       1          -0.1013
     21 C16        16.3873    15.6313    64.4062 C.ar       1          -0.0549
     22 C17        17.6575    15.7230    63.8162 C.ar       1          -0.0695
     23 H1         22.7817    16.1456    60.3876 H          1           0.0767
     24 H2         21.5494    17.4241    60.5100 H          1           0.0610
     25 H3         23.2504    17.8535    60.2098 H          1           0.0748
     26 H4         23.8638    16.9912    62.4524 H          1           0.0936
     27 H5         22.7251    18.7442    63.7860 H          1           0.0744
     28 H6         23.2174    19.3711    62.1946 H          1           0.0603
     29 H7         21.5162    18.9416    62.4946 H          1           0.0768
     30 H8         19.1209    13.3906    65.1199 H          1           0.4018
     31 H9         19.7543    11.8509    65.3451 H          1           0.4008
     32 H10        24.1047    14.8423    62.4468 H          1           0.4035
     33 H11        23.5033    13.4467    63.1633 H          1           0.4194
     34 H12        19.5530    14.9945    66.5338 H          1           0.1339
     35 H13        17.3677    14.8380    67.5872 H          1           0.1312
     36 H14        14.9065    14.9825    67.4182 H          1           0.1280
     37 H15        12.9196    15.3862    66.0693 H          1           0.1236
     38 H16        13.1076    15.9411    63.6826 H          1           0.1238
     39 H17        15.2869    16.1013    62.6065 H          1           0.1277
     40 H18        17.7549    15.9711    62.7695 H          1           0.1331
@<TRIPOS>BOND
     1    1    2 1
     2    1   23 1
     3    1   24 1
     4    1   25 1
     5    2    3 1
     6    2    4 1
     7    2   26 1
     8    3   27 1
     9    3   28 1
    10    3   29 1
    11    4   11 1
    12    4    5 1
    13    5    6 2
    14    6    7 1
    15    6   13 1
    16    7    8 1
    17    7   11 2
    18    8    9 am
    19    8   10 2
    20    9   30 1
    21    9   31 1
    22   11   12 1
    23   12   32 1
    24   12   33 1
    25   13   22 ar
    26   13   14 ar
    27   14   15 ar
    28   14   34 1
    29   15   16 ar
    30   15   35 1
    31   16   21 ar
    32   16   17 ar
    33   17   18 ar
    34   17   36 1
    35   18   19 ar
    36   18   37 1
    37   19   20 ar
    38   19   38 1
    39   20   21 ar
    40   20   39 1
    41   21   22 ar
    42   22   40 1
##########                 Name:                 1492
##########          Protonation:                  100
##########               SMILES:   CC(C)n1c(c(c(n1)c2ccc3ccccc3c2)C(=O)N)N
##########            Long Name:   5-amino-1-isopropyl-3-(2-naphthyl)pyrazole-4-carboxamide
##########          FlexRecCode: 1
##########               Number:                   17
##########   Ligand Source File: /raid1/people/rgc/Examples/tdt/part3/ligand22set/build/ligand22set-0000001.db2.g
##########           GlobalRank: 21
##########                 Rank:                    2
##########               Setnum:                   18
##########             Matchnum:                21356
##########                Cloud:                    1
##########        Electrostatic:            -6.169713
##########        Van der Waals:           -21.996628
##########  Ligand Polar Desolv:             4.113183
########## Ligand Apolar Desolv:            -1.147025
##########      Internal Energy:             0.000000
##########      Receptor Energy: 0.0
########## Receptor Desolvation:             0.000000
########## Receptor Hydrophobic:             0.000000
##########         Total Energy: -25.2
##########        Ligand Charge:             0.000000
##########            Arbitrary:    +999.9990
##########     heavy atom count:   22
##########           pose count:   10
##########        Ligand Energy:             0.000000
# num electro vdwattr vdwrepu polsolv apolsol rdesolv rhydroe totalscore fullpol fullapo
#   1    0.40   -0.50    0.03   -0.05   -0.06    0.00    0.00      -0.18   -0.16   -0.19
#   2   -0.58   -0.64    0.05    0.09   -0.13    0.00    0.00      -1.22    0.25   -0.36
#   3    0.26   -1.49    0.79   -0.11   -0.06    0.00    0.00      -0.62   -0.33   -0.19
#   4    1.97   -1.00    0.09    0.26    0.29    0.00    0.00       1.62    0.84    0.93
#   5    2.10   -0.94    0.16    0.45    0.29    0.00    0.00       2.07    1.75    1.14
#   6   -1.66   -0.95    0.09   -0.31   -0.25    0.00    0.00      -3.08   -0.98   -0.77
#   7    2.16   -1.06    0.08    0.77   -0.16    0.00    0.00       1.79    1.98   -0.42
#   8   -2.30   -1.56    0.30   -1.35   -0.23    0.00    0.00      -5.14   -3.07   -0.53
#   9    8.49   -2.65    1.14    0.15    0.89    0.00    0.00       8.01    0.33    1.96
#  10   -2.58   -1.86    0.67    2.62    0.18    0.00    0.00      -0.97    5.82    0.41
#  11   -1.50   -1.18    0.16   -0.31   -0.80    0.00    0.00      -3.64   -0.84   -2.17
#  12    0.54   -1.55    0.39   -0.87    0.39    0.00    0.00      -1.10   -2.01    0.91
#  13    0.20   -1.00    0.09    0.07   -0.12    0.00    0.00      -0.77    0.23   -0.40
#  14    1.92   -1.29    0.19    0.27   -0.15    0.00    0.00       0.95    0.75   -0.42
#  15    2.36   -1.90    0.61    0.17   -0.16    0.00    0.00       1.09    0.48   -0.45
#  16    0.55   -1.42    0.55    0.09   -0.12    0.00    0.00      -0.35    0.30   -0.40
#  17    0.91   -1.04    0.16    0.06   -0.14    0.00    0.00      -0.05    0.20   -0.46
#  18    0.02   -0.96    0.15    0.01   -0.14    0.00    0.00      -0.93    0.02   -0.47
#  19   -0.32   -1.11    0.24    0.01   -0.14    0.00    0.00      -1.32    0.02   -0.47
#  20   -0.26   -1.28    0.31    0.06   -0.13    0.00    0.00      -1.29    0.23   -0.46
#  21    0.27   -1.44    0.44    0.09   -0.11    0.00    0.00      -0.75    0.34   -0.40
#  22    0.46   -1.59    0.46    0.10   -0.13    0.00    0.00      -0.70    0.36   -0.45
#  23   -0.16   -0.24    0.04    0.11   -0.07    0.00    0.00      -0.31    0.48   -0.28
#  24   -0.14   -0.09    0.00    0.00   -0.02    0.00    0.00      -0.25   -0.02   -0.28
#  25   -0.10   -0.17    0.01   -0.02   -0.05    0.00    0.00      -0.32   -0.09   -0.28
#  26   -0.48   -0.28    0.06    0.25   -0.07    0.00    0.00      -0.53    0.80   -0.23
#  27    0.06   -1.24    2.16   -0.02   -0.11    0.00    0.00       0.86   -0.04   -0.28
#  28   -0.05   -0.29    0.11    0.03   -0.07    0.00    0.00      -0.27    0.12   -0.28
#  29   -0.24   -0.57    0.38    0.16   -0.08    0.00    0.00      -0.35    0.56   -0.28
#  30   -6.01   -0.03    0.00    0.26    0.20    0.00    0.00      -5.58    0.79    0.59
#  31   -4.28   -0.10    0.02    0.19    0.27    0.00    0.00      -3.91    0.43    0.60
#  32   -0.51   -0.02    0.00    0.85    0.17    0.00    0.00       0.49    2.46    0.50
#  33    0.72   -0.02    0.00    0.34    0.16    0.00    0.00       1.20    1.22    0.58
#  34   -3.17   -0.28    0.04   -0.27   -0.06    0.00    0.00      -3.74   -0.91   -0.21
#  35   -3.89   -1.04    1.49   -0.13   -0.11    0.00    0.00      -3.69   -0.34   -0.28
#  36   -1.62   -0.25    0.05    0.02   -0.06    0.00    0.00      -1.86    0.11   -0.28
#  37   -0.03   -0.25    0.09    0.09   -0.06    0.00    0.00      -0.16    0.42   -0.28
#  38    0.37   -0.39    0.39    0.10   -0.07    0.00    0.00       0.40    0.41   -0.28
#  39    0.34   -0.26    0.07    0.01   -0.05    0.00    0.00       0.10    0.04   -0.28
#  40   -0.39   -0.61    0.52   -0.16   -0.08    0.00    0.00      -0.72   -0.56   -0.28

@<TRIPOS>MOLECULE
             1492       100
   40    42     0     0     0



@<TRIPOS>ATOM
      1 C1         26.9410    15.1533    61.4685 C.3        1          -0.1630
      2 C2         25.8217    15.0310    62.5046 C.3        1           0.1579
      3 C3         26.4310    14.9371    63.9048 C.3        1          -0.1614
      4 N1         24.9541    16.2089    62.4275 N.pl3      1          -0.3846
      5 N2         25.3654    17.4872    62.0411 N.2        1          -0.2765
      6 C4         24.3406    18.3060    62.0818 C.2        1           0.1783
      7 C5         23.1793    17.5236    62.5218 C.2        1          -0.3637
      8 C6         21.8106    18.0123    62.7149 C.2        1           0.6129
      9 N3         21.5183    19.3072    62.4817 N.am       1          -0.8477
     10 O1         20.9384    17.2488    63.0857 O.2        1          -0.5417
     11 C7         23.6372    16.2227    62.7127 C.2        1           0.4111
     12 N4         22.8805    15.1440    63.1226 N.pl3      1          -0.8435
     13 C8         24.3537    19.7499    61.7470 C.ar       1          -0.0161
     14 C9         23.5348    20.2323    60.7124 C.ar       1          -0.0932
     15 C10        23.5283    21.5505    60.3863 C.ar       1          -0.1049
     16 C11        24.3489    22.4524    61.0876 C.ar       1          -0.0434
     17 C12        24.3600    23.8208    60.7696 C.ar       1          -0.1082
     18 C13        25.1646    24.6691    61.4666 C.ar       1          -0.1126
     19 C14        25.9816    24.2017    62.4944 C.ar       1          -0.1185
     20 C15        25.9982    22.8831    62.8306 C.ar       1          -0.1013
     21 C16        25.1797    21.9766    62.1335 C.ar       1          -0.0549
     22 C17        25.1674    20.6116    62.4590 C.ar       1          -0.0695
     23 H1         26.5068    15.2201    60.4709 H          1           0.0767
     24 H2         27.5268    16.0497    61.6707 H          1           0.0610
     25 H3         27.5865    14.2768    61.5259 H          1           0.0748
     26 H4         25.2358    14.1343    62.3024 H          1           0.0936
     27 H5         25.6336    14.8500    64.6430 H          1           0.0744
     28 H6         27.0764    14.0605    63.9623 H          1           0.0603
     29 H7         27.0168    15.8338    64.1071 H          1           0.0768
     30 H8         22.2134    19.9157    62.1861 H          1           0.4018
     31 H9         20.6128    19.6305    62.6095 H          1           0.4008
     32 H10        23.2947    14.2735    63.2291 H          1           0.4035
     33 H11        21.9343    15.2565    63.3045 H          1           0.4194
     34 H12        22.9024    19.5459    60.1692 H          1           0.1339
     35 H13        22.8935    21.9063    59.5882 H          1           0.1312
     36 H14        23.7329    24.1981    59.9753 H          1           0.1280
     37 H15        25.1703    25.7204    61.2191 H          1           0.1236
     38 H16        26.6109    24.8959    63.0315 H          1           0.1238
     39 H17        26.6368    22.5346    63.6289 H          1           0.1277
     40 H18        25.7916    20.2365    63.2566 H          1           0.1331
@<TRIPOS>BOND
     1    1    2 1
     2    1   23 1
     3    1   24 1
     4    1   25 1
     5    2    3 1
     6    2    4 1
     7    2   26 1
     8    3   27 1
     9    3   28 1
    10    3   29 1
    11    4   11 1
    12    4    5 1
    13    5    6 2
    14    6    7 1
    15    6   13 1
    16    7    8 1
    17    7   11 2
    18    8    9 am
    19    8   10 2
    20    9   30 1
    21    9   31 1
    22   11   12 1
    23   12   32 1
    24   12   33 1
    25   13   22 ar
    26   13   14 ar
    27   14   15 ar
    28   14   34 1
    29   15   16 ar
    30   15   35 1
    31   16   21 ar
    32   16   17 ar
    33   17   18 ar
    34   17   36 1
    35   18   19 ar
    36   18   37 1
    37   19   20 ar
    38   19   38 1
    39   20   21 ar
    40   20   39 1
    41   21   22 ar
    42   22   40 1
##########                 Name:                 1492
##########          Protonation:                  100
##########               SMILES:   CC(C)n1c(c(c(n1)c2ccc3ccccc3c2)C(=O)N)N
##########            Long Name:   5-amino-1-isopropyl-3-(2-naphthyl)pyrazole-4-carboxamide
##########          FlexRecCode: 1
##########               Number:                   17
##########   Ligand Source File: /raid1/people/rgc/Examples/tdt/part3/ligand22set/build/ligand22set-0000001.db2.g
##########           GlobalRank: 21
##########                 Rank:                    3
##########               Setnum:                    6
##########             Matchnum:                24595
##########                Cloud:                    1
##########        Electrostatic:            -7.852338
##########        Van der Waals:           -19.591599
##########  Ligand Polar Desolv:             6.465451
########## Ligand Apolar Desolv:            -2.681149
##########      Internal Energy:             0.000000
##########      Receptor Energy: 0.0
########## Receptor Desolvation:             0.000000
########## Receptor Hydrophobic:             0.000000
##########         Total Energy: -23.66
##########        Ligand Charge:             0.000000
##########            Arbitrary:    +999.9990
##########     heavy atom count:   22
##########           pose count:   10
##########        Ligand Energy:             0.000000
# num electro vdwattr vdwrepu polsolv apolsol rdesolv rhydroe totalscore fullpol fullapo
#   1    1.42   -0.80    0.11   -0.07   -0.08    0.00    0.00       0.58   -0.16   -0.19
#   2   -0.34   -0.83    0.09    0.10   -0.15    0.00    0.00      -1.12    0.25   -0.36
#   3    0.17   -1.89    0.79   -0.16   -0.09    0.00    0.00      -1.17   -0.33   -0.19
#   4   -1.25   -1.56    0.32    0.36    0.40    0.00    0.00      -1.72    0.84    0.93
#   5   -3.44   -2.36    1.18    0.85    0.55    0.00    0.00      -3.21    1.75    1.14
#   6    1.88   -1.71    0.24   -0.53   -0.42    0.00    0.00      -0.53   -0.98   -0.77
#   7   -1.89   -1.67    0.26    1.18   -0.25    0.00    0.00      -2.37    1.98   -0.42
#   8    1.65   -2.74    0.79   -1.96   -0.34    0.00    0.00      -2.61   -3.07   -0.53
#   9   -1.49   -4.84    3.27    0.22    1.32    0.00    0.00      -1.52    0.33    1.96
#  10   -0.22   -4.62    5.12    3.80    0.27    0.00    0.00       4.34    5.82    0.41
#  11    1.17   -1.81    0.86   -0.44   -1.15    0.00    0.00      -1.37   -0.84   -2.17
#  12   -0.13   -2.14    0.89   -1.02    0.46    0.00    0.00      -1.93   -2.01    0.91
#  13   -0.21   -2.17    0.51    0.14   -0.24    0.00    0.00      -1.98    0.23   -0.40
#  14   -1.25   -3.80    2.23    0.45   -0.25    0.00    0.00      -2.63    0.75   -0.42
#  15   -1.13   -4.37    2.87    0.29   -0.27    0.00    0.00      -2.61    0.48   -0.45
#  16   -0.53   -3.36    3.59    0.18   -0.24    0.00    0.00      -0.35    0.30   -0.40
#  17   -1.12   -2.69    1.95    0.12   -0.29    0.00    0.00      -2.03    0.20   -0.46
#  18   -0.99   -2.61    1.02    0.01   -0.30    0.00    0.00      -2.87    0.02   -0.47
#  19   -0.68   -4.11    2.55    0.01   -0.30    0.00    0.00      -2.53    0.02   -0.47
#  20   -0.38   -3.88    1.97    0.15   -0.29    0.00    0.00      -2.43    0.23   -0.46
#  21   -0.54   -3.21    2.39    0.22   -0.26    0.00    0.00      -1.41    0.34   -0.40
#  22   -0.71   -2.44    0.83    0.23   -0.29    0.00    0.00      -2.38    0.36   -0.45
#  23   -0.76   -0.50    0.40    0.15   -0.09    0.00    0.00      -0.79    0.48   -0.28
#  24   -0.51   -0.28    0.05   -0.01   -0.08    0.00    0.00      -0.82   -0.02   -0.28
#  25   -0.95   -0.16    0.01   -0.02   -0.05    0.00    0.00      -1.17   -0.09   -0.28
#  26   -0.32   -0.20    0.02    0.17   -0.05    0.00    0.00      -0.38    0.80   -0.23
#  27    0.17   -1.05    0.91   -0.02   -0.14    0.00    0.00      -0.13   -0.04   -0.28
#  28   -0.27   -0.50    0.11    0.05   -0.11    0.00    0.00      -0.73    0.12   -0.28
#  29    0.01   -0.96    1.46    0.27   -0.14    0.00    0.00       0.66    0.56   -0.28
#  30    1.41   -0.07    0.00    0.52    0.39    0.00    0.00       2.26    0.79    0.59
#  31   -0.94   -0.13    0.01    0.30    0.42    0.00    0.00      -0.34    0.43    0.60
#  32   -0.88   -0.02    0.00    0.80    0.16    0.00    0.00       0.06    2.46    0.50
#  33    0.50   -0.04    0.00    0.60    0.29    0.00    0.00       1.35    1.22    0.58
#  34    1.32   -1.46    3.71   -0.54   -0.12    0.00    0.00       2.91   -0.91   -0.21
#  35    0.15   -2.28    8.32   -0.21   -0.17    0.00    0.00       5.81   -0.34   -0.28
#  36    1.18   -0.49    0.11    0.05   -0.13    0.00    0.00       0.71    0.11   -0.28
#  37    1.00   -0.49    0.14    0.20   -0.13    0.00    0.00       0.72    0.42   -0.28
#  38    0.52   -1.50    1.97    0.26   -0.18    0.00    0.00       1.07    0.41   -0.28
#  39   -0.33   -0.91    0.38    0.03   -0.18    0.00    0.00      -1.02    0.04   -0.28
#  40    0.87   -0.45    0.07   -0.29   -0.15    0.00    0.00       0.05   -0.56   -0.28

@<TRIPOS>MOLECULE
             1492       100
   40    42     0     0     0



@<TRIPOS>ATOM
      1 C1         22.0948    17.7230    61.5846 C.3        1          -0.1630
      2 C2         22.4071    16.9573    62.8719 C.3        1           0.1579
      3 C3         22.6055    17.9491    64.0199 C.3        1          -0.1614
      4 N1         21.2932    16.0600    63.1887 N.pl3      1          -0.3846
      5 N2         19.9770    16.4644    63.4271 N.2        1          -0.2765
      6 C4         19.2363    15.4111    63.6801 C.2        1           0.1783
      7 C5         20.1139    14.2371    63.6051 C.2        1          -0.3637
      8 C6         19.7316    12.8373    63.8148 C.2        1           0.6129
      9 N3         19.3177    12.0887    62.7733 N.am       1          -0.8477
     10 O1         19.7881    12.3514    64.9291 O.2        1          -0.5417
     11 C7         21.3811    14.7191    63.2887 C.2        1           0.4111
     12 N4         22.5211    13.9615    63.1126 N.pl3      1          -0.8435
     13 C8         17.7856    15.4078    63.9850 C.ar       1          -0.0161
     14 C9         16.8747    15.9133    63.0425 C.ar       1          -0.0932
     15 C10        15.5410    15.9215    63.2976 C.ar       1          -0.1049
     16 C11        15.0556    15.4195    64.5186 C.ar       1          -0.0434
     17 C12        13.6803    15.4165    64.8062 C.ar       1          -0.1082
     18 C13        13.2409    14.9236    65.9965 C.ar       1          -0.1126
     19 C14        14.1355    14.4203    66.9393 C.ar       1          -0.1185
     20 C15        15.4744    14.4070    66.6966 C.ar       1          -0.1013
     21 C16        15.9657    14.9069    65.4774 C.ar       1          -0.0549
     22 C17        17.3399    14.9023    65.1922 C.ar       1          -0.0695
     23 H1         21.9535    17.0165    60.7667 H          1           0.0767
     24 H2         21.1851    18.3075    61.7211 H          1           0.0610
     25 H3         22.9236    18.3906    61.3488 H          1           0.0748
     26 H4         23.3169    16.3728    62.7354 H          1           0.0936
     27 H5         22.8278    17.4036    64.9370 H          1           0.0744
     28 H6         23.4343    18.6166    63.7842 H          1           0.0603
     29 H7         21.6955    18.5336    64.1564 H          1           0.0768
     30 H8         19.2727    12.4759    61.8851 H          1           0.4018
     31 H9         19.0646    11.1626    62.9119 H          1           0.4008
     32 H10        23.3617    14.3936    62.8949 H          1           0.4035
     33 H11        22.4815    12.9968    63.2066 H          1           0.4194
     34 H12        17.2400    16.3008    62.1029 H          1           0.1339
     35 H13        14.8531    16.3137    62.5632 H          1           0.1312
     36 H14        12.9748    15.8038    64.0859 H          1           0.1280
     37 H15        12.1830    14.9229    66.2139 H          1           0.1236
     38 H16        13.7606    14.0353    67.8762 H          1           0.1238
     39 H17        16.1563    14.0146    67.4365 H          1           0.1277
     40 H18        18.0439    14.5104    65.9115 H          1           0.1331
@<TRIPOS>BOND
     1    1    2 1
     2    1   23 1
     3    1   24 1
     4    1   25 1
     5    2    3 1
     6    2    4 1
     7    2   26 1
     8    3   27 1
     9    3   28 1
    10    3   29 1
    11    4   11 1
    12    4    5 1
    13    5    6 2
    14    6    7 1
    15    6   13 1
    16    7    8 1
    17    7   11 2
    18    8    9 am
    19    8   10 2
    20    9   30 1
    21    9   31 1
    22   11   12 1
    23   12   32 1
    24   12   33 1
    25   13   22 ar
    26   13   14 ar
    27   14   15 ar
    28   14   34 1
    29   15   16 ar
    30   15   35 1
    31   16   21 ar
    32   16   17 ar
    33   17   18 ar
    34   17   36 1
    35   18   19 ar
    36   18   37 1
    37   19   20 ar
    38   19   38 1
    39   20   21 ar
    40   20   39 1
    41   21   22 ar
    42   22   40 1
##########                 Name:                 1492
##########          Protonation:                  100
##########               SMILES:   CC(C)n1c(c(c(n1)c2ccc3ccccc3c2)C(=O)N)N
##########            Long Name:   5-amino-1-isopropyl-3-(2-naphthyl)pyrazole-4-carboxamide
##########          FlexRecCode: 1
##########               Number:                   17
##########   Ligand Source File: /raid1/people/rgc/Examples/tdt/part3/ligand22set/build/ligand22set-0000001.db2.g
##########           GlobalRank: 21
##########                 Rank:                    4
##########               Setnum:                   18
##########             Matchnum:                 4154
##########                Cloud:                    1
##########        Electrostatic:            -7.829547
##########        Van der Waals:           -18.112675
##########  Ligand Polar Desolv:             4.244077
########## Ligand Apolar Desolv:            -1.251387
##########      Internal Energy:             0.000000
##########      Receptor Energy: 0.0
########## Receptor Desolvation:             0.000000
########## Receptor Hydrophobic:             0.000000
##########         Total Energy: -22.95
##########        Ligand Charge:             0.000000
##########            Arbitrary:    +999.9990
##########     heavy atom count:   22
##########           pose count:   10
##########        Ligand Energy:             0.000000
# num electro vdwattr vdwrepu polsolv apolsol rdesolv rhydroe totalscore fullpol fullapo
#   1    0.45   -0.62    0.05   -0.05   -0.06    0.00    0.00      -0.23   -0.16   -0.19
#   2   -0.63   -0.74    0.07    0.10   -0.14    0.00    0.00      -1.34    0.25   -0.36
#   3    0.24   -1.56    0.88   -0.12   -0.07    0.00    0.00      -0.63   -0.33   -0.19
#   4    1.78   -1.03    0.09    0.29    0.32    0.00    0.00       1.44    0.84    0.93
#   5    2.03   -0.86    0.08    0.48    0.32    0.00    0.00       2.05    1.75    1.14
#   6   -1.61   -0.90    0.06   -0.33   -0.26    0.00    0.00      -3.05   -0.98   -0.77
#   7    1.73   -1.11    0.11    0.79   -0.17    0.00    0.00       1.35    1.98   -0.42
#   8   -0.72   -1.72    0.52   -1.37   -0.24    0.00    0.00      -3.53   -3.07   -0.53
#   9    6.77   -3.01    2.81    0.15    0.91    0.00    0.00       7.64    0.33    1.96
#  10   -4.27   -1.97    0.82    2.64    0.19    0.00    0.00      -2.60    5.82    0.41
#  11   -1.13   -1.31    0.29   -0.32   -0.83    0.00    0.00      -3.31   -0.84   -2.17
#  12   -0.21   -1.70    0.55   -0.91    0.41    0.00    0.00      -1.85   -2.01    0.91
#  13    0.22   -0.96    0.07    0.08   -0.14    0.00    0.00      -0.74    0.23   -0.40
#  14    2.01   -1.36    0.20    0.29   -0.16    0.00    0.00       0.98    0.75   -0.42
#  15    2.75   -2.43    1.16    0.18   -0.17    0.00    0.00       1.49    0.48   -0.45
#  16    0.78   -1.74    0.80    0.10   -0.13    0.00    0.00      -0.20    0.30   -0.40
#  17    1.55   -1.50    0.42    0.06   -0.15    0.00    0.00       0.39    0.20   -0.46
#  18    0.44   -0.93    0.10    0.01   -0.14    0.00    0.00      -0.53    0.02   -0.47
#  19   -0.29   -1.04    0.15    0.01   -0.13    0.00    0.00      -1.30    0.02   -0.47
#  20   -0.10   -1.44    0.42    0.06   -0.12    0.00    0.00      -1.19    0.23   -0.46
#  21    0.51   -1.61    0.70    0.10   -0.12    0.00    0.00      -0.42    0.34   -0.40
#  22    0.63   -1.46    0.32    0.11   -0.14    0.00    0.00      -0.54    0.36   -0.45
#  23   -0.17   -0.31    0.07    0.15   -0.09    0.00    0.00      -0.35    0.48   -0.28
#  24   -0.16   -0.10    0.00    0.00   -0.03    0.00    0.00      -0.29   -0.02   -0.28
#  25   -0.13   -0.22    0.02   -0.02   -0.07    0.00    0.00      -0.42   -0.09   -0.28
#  26   -0.61   -0.40    0.20    0.26   -0.08    0.00    0.00      -0.62    0.80   -0.23
#  27    0.08   -1.28    2.19   -0.02   -0.11    0.00    0.00       0.86   -0.04   -0.28
#  28   -0.06   -0.33    0.14    0.03   -0.08    0.00    0.00      -0.30    0.12   -0.28
#  29   -0.20   -0.54    0.28    0.16   -0.08    0.00    0.00      -0.38    0.56   -0.28
#  30   -5.36   -0.03    0.00    0.26    0.19    0.00    0.00      -4.93    0.79    0.59
#  31   -4.64   -0.21    0.16    0.19    0.27    0.00    0.00      -4.23    0.43    0.60
#  32   -0.16   -0.03    0.00    0.93    0.19    0.00    0.00       0.93    2.46    0.50
#  33    1.12   -0.02    0.00    0.36    0.17    0.00    0.00       1.63    1.22    0.58
#  34   -3.06   -0.28    0.03   -0.29   -0.07    0.00    0.00      -3.66   -0.91   -0.21
#  35   -4.48   -1.80    5.44   -0.15   -0.12    0.00    0.00      -1.11   -0.34   -0.28
#  36   -2.58   -0.63    0.62    0.03   -0.08    0.00    0.00      -2.63    0.11   -0.28
#  37   -0.36   -0.16    0.01    0.07   -0.05    0.00    0.00      -0.49    0.42   -0.28
#  38    0.35   -0.25    0.09    0.09   -0.06    0.00    0.00       0.22    0.41   -0.28
#  39    0.34   -0.31    0.09    0.01   -0.06    0.00    0.00       0.07    0.04   -0.28
#  40   -0.68   -0.50    0.28   -0.16   -0.08    0.00    0.00      -1.14   -0.56   -0.28

@<TRIPOS>MOLECULE
             1492       100
   40    42     0     0     0



@<TRIPOS>ATOM
      1 C1         26.5648    14.8464    61.4510 C.3        1          -0.1630
      2 C2         25.4726    14.7527    62.5184 C.3        1           0.1579
      3 C3         26.1168    14.7219    63.9058 C.3        1          -0.1614
      4 N1         24.5887    15.9166    62.4161 N.pl3      1          -0.3846
      5 N2         24.9745    17.1831    61.9694 N.2        1          -0.2765
      6 C4         23.9409    17.9909    62.0029 C.2        1           0.1783
      7 C5         22.8004    17.2134    62.5020 C.2        1          -0.3637
      8 C6         21.4308    17.6937    62.7094 C.2        1           0.6129
      9 N3         21.1167    18.9747    62.4323 N.am       1          -0.8477
     10 O1         20.5775    16.9356    63.1317 O.2        1          -0.5417
     11 C7         23.2790    15.9266    62.7330 C.2        1           0.4111
     12 N4         22.5460    14.8565    63.2040 N.pl3      1          -0.8435
     13 C8         23.9278    19.4204    61.6108 C.ar       1          -0.0161
     14 C9         23.0781    19.8517    60.5785 C.ar       1          -0.0932
     15 C10        23.0473    21.1556    60.2006 C.ar       1          -0.1049
     16 C11        23.8732    22.0941    60.8451 C.ar       1          -0.0434
     17 C12        23.8595    23.4489    60.4729 C.ar       1          -0.1082
     18 C13        24.6701    24.3335    61.1156 C.ar       1          -0.1126
     19 C14        25.5175    23.9170    62.1406 C.ar       1          -0.1185
     20 C15        25.5588    22.6132    62.5283 C.ar       1          -0.1013
     21 C16        24.7350    21.6702    61.8882 C.ar       1          -0.0549
     22 C17        24.7477    20.3192    62.2677 C.ar       1          -0.0695
     23 H1         26.1058    14.8683    60.4626 H          1           0.0767
     24 H2         27.1442    15.7570    61.6030 H          1           0.0610
     25 H3         27.2224    13.9805    61.5271 H          1           0.0748
     26 H4         24.8932    13.8421    62.3665 H          1           0.0936
     27 H5         25.3387    14.6552    64.6663 H          1           0.0744
     28 H6         26.7743    13.8559    63.9821 H          1           0.0603
     29 H7         26.6961    15.6326    64.0578 H          1           0.0768
     30 H8         21.7969    19.5789    62.0958 H          1           0.4018
     31 H9         20.2107    19.2925    62.5696 H          1           0.4008
     32 H10        22.9736    13.9957    63.3346 H          1           0.4035
     33 H11        21.6032    14.9652    63.4046 H          1           0.4194
     34 H12        22.4413    19.1368    60.0787 H          1           0.1339
     35 H13        22.3889    21.4719    59.4049 H          1           0.1312
     36 H14        23.2087    23.7869    59.6799 H          1           0.1280
     37 H15        24.6566    25.3741    60.8266 H          1           0.1236
     38 H16        26.1509    24.6393    62.6341 H          1           0.1238
     39 H17        26.2208    22.3042    63.3238 H          1           0.1277
     40 H18        25.3957    19.9834    63.0639 H          1           0.1331
@<TRIPOS>BOND
     1    1    2 1
     2    1   23 1
     3    1   24 1
     4    1   25 1
     5    2    3 1
     6    2    4 1
     7    2   26 1
     8    3   27 1
     9    3   28 1
    10    3   29 1
    11    4   11 1
    12    4    5 1
    13    5    6 2
    14    6    7 1
    15    6   13 1
    16    7    8 1
    17    7   11 2
    18    8    9 am
    19    8   10 2
    20    9   30 1
    21    9   31 1
    22   11   12 1
    23   12   32 1
    24   12   33 1
    25   13   22 ar
    26   13   14 ar
    27   14   15 ar
    28   14   34 1
    29   15   16 ar
    30   15   35 1
    31   16   21 ar
    32   16   17 ar
    33   17   18 ar
    34   17   36 1
    35   18   19 ar
    36   18   37 1
    37   19   20 ar
    38   19   38 1
    39   20   21 ar
    40   20   39 1
    41   21   22 ar
    42   22   40 1
##########                 Name:                 1492
##########          Protonation:                  100
##########               SMILES:   CC(C)n1c(c(c(n1)c2ccc3ccccc3c2)C(=O)N)N
##########            Long Name:   5-amino-1-isopropyl-3-(2-naphthyl)pyrazole-4-carboxamide
##########          FlexRecCode: 1
##########               Number:                   17
##########   Ligand Source File: /raid1/people/rgc/Examples/tdt/part3/ligand22set/build/ligand22set-0000001.db2.g
##########           GlobalRank: 21
##########                 Rank:                    5
##########               Setnum:                   33
##########             Matchnum:                 6455
##########                Cloud:                    1
##########        Electrostatic:            -8.025856
##########        Van der Waals:           -17.786798
##########  Ligand Polar Desolv:             6.070055
########## Ligand Apolar Desolv:            -2.766169
##########      Internal Energy:             0.000000
##########      Receptor Energy: 0.0
########## Receptor Desolvation:             0.000000
########## Receptor Hydrophobic:             0.000000
##########         Total Energy: -22.51
##########        Ligand Charge:             0.000000
##########            Arbitrary:    +999.9990
##########     heavy atom count:   22
##########           pose count:   10
##########        Ligand Energy:             0.000000
# num electro vdwattr vdwrepu polsolv apolsol rdesolv rhydroe totalscore fullpol fullapo
#   1    1.82   -0.69    0.04   -0.07   -0.08    0.00    0.00       1.02   -0.16   -0.19
#   2   -1.00   -0.71    0.10    0.09   -0.14    0.00    0.00      -1.65    0.25   -0.36
#   3    0.92   -1.05    0.28   -0.12   -0.07    0.00    0.00      -0.04   -0.33   -0.19
#   4    0.25   -1.44    0.40    0.34    0.38    0.00    0.00      -0.06    0.84    0.93
#   5   -1.55   -1.84    0.51    0.78    0.51    0.00    0.00      -1.58    1.75    1.14
#   6    1.57   -1.74    0.36   -0.48   -0.38    0.00    0.00      -0.68   -0.98   -0.77
#   7   -1.60   -1.68    0.33    1.12   -0.24    0.00    0.00      -2.07    1.98   -0.42
#   8    2.68   -2.60    1.23   -1.90   -0.33    0.00    0.00      -0.92   -3.07   -0.53
#   9   -2.52   -3.88    4.70    0.20    1.21    0.00    0.00      -0.28    0.33    1.96
#  10   -2.98   -3.64    1.63    3.71    0.26    0.00    0.00      -1.02    5.82    0.41
#  11    0.37   -1.70    0.65   -0.38   -0.98    0.00    0.00      -2.05   -0.84   -2.17
#  12    1.36   -1.79    0.39   -0.93    0.42    0.00    0.00      -0.55   -2.01    0.91
#  13   -0.23   -1.99    0.43    0.13   -0.22    0.00    0.00      -1.88    0.23   -0.40
#  14   -1.34   -2.98    1.25    0.43   -0.24    0.00    0.00      -2.88    0.75   -0.42
#  15   -1.48   -3.29    1.18    0.29   -0.27    0.00    0.00      -3.57    0.48   -0.45
#  16   -0.67   -2.54    0.74    0.18   -0.24    0.00    0.00      -2.54    0.30   -0.40
#  17   -1.43   -2.41    0.67    0.13   -0.29    0.00    0.00      -3.33    0.20   -0.46
#  18   -1.27   -2.78    0.84    0.01   -0.31    0.00    0.00      -3.51    0.02   -0.47
#  19   -1.04   -5.88   10.47    0.01   -0.31    0.00    0.00       3.25    0.02   -0.47
#  20   -0.94   -5.17    6.96    0.15   -0.31    0.00    0.00       0.69    0.23   -0.46
#  21   -0.74   -2.52    0.60    0.22   -0.26    0.00    0.00      -2.71    0.34   -0.40
#  22   -0.89   -2.46    0.74    0.22   -0.27    0.00    0.00      -2.66    0.36   -0.45
#  23   -1.00   -0.23    0.01    0.14   -0.08    0.00    0.00      -1.15    0.48   -0.28
#  24   -0.54   -0.30    0.03   -0.01   -0.09    0.00    0.00      -0.90   -0.02   -0.28
#  25   -1.17   -0.16    0.01   -0.02   -0.05    0.00    0.00      -1.39   -0.09   -0.28
#  26   -0.75   -0.30    0.12    0.18   -0.05    0.00    0.00      -0.80    0.80   -0.23
#  27   -0.29   -0.32    0.07   -0.01   -0.07    0.00    0.00      -0.62   -0.04   -0.28
#  28   -0.49   -0.24    0.06    0.02   -0.05    0.00    0.00      -0.70    0.12   -0.28
#  29   -0.30   -0.58    0.22    0.21   -0.10    0.00    0.00      -0.56    0.56   -0.28
#  30    2.01   -0.04    0.00    0.34    0.25    0.00    0.00       2.57    0.79    0.59
#  31   -0.50   -0.11    0.02    0.26    0.36    0.00    0.00       0.03    0.43    0.60
#  32   -1.39   -0.02    0.00    0.66    0.13    0.00    0.00      -0.61    2.46    0.50
#  33   -0.60   -0.04    0.00    0.51    0.24    0.00    0.00       0.12    1.22    0.58
#  34    1.29   -1.14    2.08   -0.48   -0.11    0.00    0.00       1.65   -0.91   -0.21
#  35    1.07   -1.09    0.82   -0.20   -0.17    0.00    0.00       0.43   -0.34   -0.28
#  36    1.39   -0.45    0.09    0.05   -0.13    0.00    0.00       0.95    0.11   -0.28
#  37    1.26   -0.58    0.21    0.25   -0.17    0.00    0.00       0.98    0.42   -0.28
#  38    0.55   -2.25    4.89    0.27   -0.19    0.00    0.00       3.28    0.41   -0.28
#  39    0.76   -1.68    2.67    0.03   -0.18    0.00    0.00       1.60    0.04   -0.28
#  40    1.35   -0.95    1.63   -0.29   -0.14    0.00    0.00       1.60   -0.56   -0.28

@<TRIPOS>MOLECULE
             1492       100
   40    42     0     0     0



@<TRIPOS>ATOM
      1 C1         22.4664    18.4509    61.6842 C.3        1          -0.1630
      2 C2         23.0741    17.1053    62.0857 C.3        1           0.1579
      3 C3         24.2558    17.3405    63.0286 C.3        1          -0.1614
      4 N1         22.0604    16.2952    62.7658 N.pl3      1          -0.3846
      5 N2         20.7430    16.6926    63.0088 N.2        1          -0.2765
      6 C4         20.1063    15.7315    63.6358 C.2        1           0.1783
      7 C5         21.0588    14.6301    63.8198 C.2        1          -0.3637
      8 C6         20.8001    13.3421    64.4706 C.2        1           0.6129
      9 N3         19.5793    13.0755    64.9758 N.am       1          -0.8477
     10 O1         21.6876    12.5135    64.5546 O.2        1          -0.5417
     11 C7         22.2554    15.0516    63.2466 C.2        1           0.4111
     12 N4         23.4291    14.3285    63.1849 N.pl3      1          -0.8435
     13 C8         18.6910    15.7544    64.0759 C.ar       1          -0.0161
     14 C9         17.6685    15.9118    63.1255 C.ar       1          -0.0932
     15 C10        16.3643    15.9359    63.5029 C.ar       1          -0.1049
     16 C11        16.0228    15.8023    64.8608 C.ar       1          -0.0434
     17 C12        14.6808    15.8236    65.2767 C.ar       1          -0.1082
     18 C13        14.3817    15.6916    66.5980 C.ar       1          -0.1126
     19 C14        15.3878    15.5355    67.5498 C.ar       1          -0.1185
     20 C15        16.6986    15.5105    67.1851 C.ar       1          -0.1013
     21 C16        17.0463    15.6430    65.8289 C.ar       1          -0.0549
     22 C17        18.3879    15.6150    65.4176 C.ar       1          -0.0695
     23 H1         21.6244    18.2833    61.0125 H          1           0.0767
     24 H2         22.1214    18.9742    62.5759 H          1           0.0610
     25 H3         23.2205    19.0537    61.1782 H          1           0.0748
     26 H4         23.4192    16.5820    61.1940 H          1           0.0936
     27 H5         24.6888    16.3819    63.3145 H          1           0.0744
     28 H6         25.0101    17.9431    62.5225 H          1           0.0603
     29 H7         23.9107    17.8638    63.9203 H          1           0.0768
     30 H8         18.8719    13.7358    64.9088 H          1           0.4018
     31 H9         19.4081    12.2234    65.4064 H          1           0.4008
     32 H10        24.2140    14.7128    62.7642 H          1           0.4035
     33 H11        23.4691    13.4357    63.5624 H          1           0.4194
     34 H12        17.9231    16.0153    62.0810 H          1           0.1339
     35 H13        15.5895    16.0580    62.7605 H          1           0.1312
     36 H14        13.8900    15.9444    64.5510 H          1           0.1280
     37 H15        13.3490    15.7083    66.9137 H          1           0.1236
     38 H16        15.1233    15.4331    68.5919 H          1           0.1238
     39 H17        17.4679    15.3896    67.9333 H          1           0.1277
     40 H18        19.1774    15.4895    66.1439 H          1           0.1331
@<TRIPOS>BOND
     1    1    2 1
     2    1   23 1
     3    1   24 1
     4    1   25 1
     5    2    3 1
     6    2    4 1
     7    2   26 1
     8    3   27 1
     9    3   28 1
    10    3   29 1
    11    4   11 1
    12    4    5 1
    13    5    6 2
    14    6    7 1
    15    6   13 1
    16    7    8 1
    17    7   11 2
    18    8    9 am
    19    8   10 2
    20    9   30 1
    21    9   31 1
    22   11   12 1
    23   12   32 1
    24   12   33 1
    25   13   22 ar
    26   13   14 ar
    27   14   15 ar
    28   14   34 1
    29   15   16 ar
    30   15   35 1
    31   16   21 ar
    32   16   17 ar
    33   17   18 ar
    34   17   36 1
    35   18   19 ar
    36   18   37 1
    37   19   20 ar
    38   19   38 1
    39   20   21 ar
    40   20   39 1
    41   21   22 ar
    42   22   40 1
##########                 Name:                 1478
##########          Protonation:                   13
##########               SMILES:   CCOc1ccc2cc(cnc2c1)c3c4c([nH+]cnc4n(n3)C(C)C)N
##########            Long Name:   3-(7-ethoxy-3-quinolyl)-1-isopropyl-pyrazolo[3,4-d]pyrimidin-5-ium-4-amine
##########          FlexRecCode: 1
##########               Number:                   56
##########   Ligand Source File: /raid1/people/rgc/Examples/tdt/part3/ligand22set/build/ligand22set-0000001.db2.g
##########           GlobalRank: 16
##########                 Rank:                    1
##########               Setnum:                  115
##########             Matchnum:                 6408
##########                Cloud:                    1
##########        Electrostatic:           -14.677053
##########        Van der Waals:           -26.083838
##########  Ligand Polar Desolv:             8.543728
########## Ligand Apolar Desolv:            -3.044194
##########      Internal Energy:             0.000000
##########      Receptor Energy: 0.0
########## Receptor Desolvation:             0.000000
########## Receptor Hydrophobic:             0.000000
##########         Total Energy: -35.26
##########        Ligand Charge:             1.000000
##########            Arbitrary:    +999.9990
##########     heavy atom count:   26
##########           pose count:    5
##########        Ligand Energy:             0.000000
# num electro vdwattr vdwrepu polsolv apolsol rdesolv rhydroe totalscore fullpol fullapo
#   1   -1.01   -2.07    0.71   -0.84   -0.13    0.00    0.00      -3.35   -1.31   -0.21
#   2    0.47   -1.61    0.27    0.25   -0.07    0.00    0.00      -0.69    0.39   -0.11
#   3   -2.27   -3.02    2.83   -1.17    0.54    0.00    0.00      -3.09   -1.92    0.89
#   4    1.29   -2.06    0.52    0.56   -0.18    0.00    0.00       0.14    0.95   -0.31
#   5   -0.68   -2.42    0.71   -1.62   -0.27    0.00    0.00      -4.28   -2.63   -0.43
#   6   -0.20   -2.02    0.42   -0.05   -0.28    0.00    0.00      -2.14   -0.09   -0.46
#   7   -0.44   -1.69    0.45   -1.04   -0.21    0.00    0.00      -2.93   -1.95   -0.40
#   8    0.01   -1.75    0.74    0.21   -0.15    0.00    0.00      -0.93    0.47   -0.33
#   9    0.23   -1.37    0.20   -0.59   -0.15    0.00    0.00      -1.68   -1.48   -0.38
#  10   -0.05   -1.96    0.48    0.67   -0.43    0.00    0.00      -1.29    1.49   -0.96
#  11   -2.56   -3.70    4.16   -1.51    0.95    0.00    0.00      -2.67   -3.17    1.99
#  12    1.31   -2.25    1.20    0.42   -0.35    0.00    0.00       0.33    0.89   -0.73
#  13   -1.68   -2.29    1.00   -0.61   -0.26    0.00    0.00      -3.84   -1.13   -0.47
#  14   -1.02   -1.17    0.17    0.97   -0.24    0.00    0.00      -1.29    2.99   -0.75
#  15    0.76   -1.46    0.35   -1.08    0.36    0.00    0.00      -1.07   -3.46    1.15
#  16    1.25   -0.85    0.15   -1.09    0.21    0.00    0.00      -0.33   -4.97    0.94
#  17   -0.18   -0.35    0.03    0.37   -0.06    0.00    0.00      -0.19    2.09   -0.35
#  18    0.01   -0.18    0.00   -0.21   -0.02    0.00    0.00      -0.39   -1.85   -0.19
#  19    0.09   -0.77    0.25   -0.41   -0.04    0.00    0.00      -0.88   -1.87   -0.19
#  20   -2.10   -0.63    0.05    1.44   -0.47    0.00    0.00      -1.70    6.69   -2.19
#  21    2.29   -0.47    0.01   -2.45    0.42    0.00    0.00      -0.19  -12.12    2.09
#  22   -3.98   -0.85    0.13    3.43   -0.80    0.00    0.00      -2.08   13.49   -3.15
#  23    9.81   -1.42    0.51   -4.68    0.29    0.00    0.00       4.51  -16.16    1.00
#  24  -12.75   -0.06    0.01    4.62    0.15    0.00    0.00      -8.03   17.79    0.59
#  25   -7.41   -0.88    0.07    4.87   -0.65    0.00    0.00      -4.00   15.91   -2.14
#  26   11.93   -1.04    0.08   -8.41    0.31    0.00    0.00       2.86  -21.95    0.81
#  27    2.37   -0.78    0.06   -1.81   -0.12    0.00    0.00      -0.28   -6.54   -0.44
#  28    0.60   -0.70    0.33    0.16   -0.15    0.00    0.00       0.25    0.30   -0.28
#  29    0.82   -0.61    0.50    0.53   -0.12    0.00    0.00       1.11    1.19   -0.28
#  30   -0.13   -1.34    2.14    0.13   -0.17    0.00    0.00       0.63    0.22   -0.28
#  31    1.16   -0.50    0.13    0.48   -0.12    0.00    0.00       1.15    1.07   -0.26
#  32    0.42   -0.60    0.10    0.76   -0.16    0.00    0.00       0.52    1.27   -0.27
#  33    0.05   -0.88    0.72    1.68   -0.13    0.00    0.00       1.44    2.81   -0.22
#  34    0.56   -0.57    0.14    3.03   -0.16    0.00    0.00       2.99    5.30   -0.28
#  35   -0.43   -0.40    0.15    1.99   -0.09    0.00    0.00       1.23    5.61   -0.25
#  36   -0.51   -0.41    0.06    0.57   -0.11    0.00    0.00      -0.40    1.44   -0.28
#  37    2.64   -0.68    0.45   -0.09   -0.12    0.00    0.00       2.20   -0.20   -0.28
#  38   -0.09   -0.09    0.00    0.17   -0.02    0.00    0.00      -0.02    2.26   -0.28
#  39    0.06   -0.03    0.00    0.01   -0.01    0.00    0.00       0.03    0.28   -0.28
#  40   -0.02   -0.06    0.00    0.07   -0.02    0.00    0.00      -0.02    1.20   -0.28
#  41    0.01   -0.05    0.00    0.04   -0.02    0.00    0.00      -0.02    0.66   -0.28
#  42    0.05   -0.09    0.00    0.07   -0.03    0.00    0.00       0.01    0.71   -0.28
#  43   -0.02   -0.52    0.71    0.24   -0.06    0.00    0.00       0.35    1.22   -0.28
#  44   -0.04   -0.45    0.21    0.07   -0.08    0.00    0.00      -0.28    0.27   -0.28
#  45   -2.02   -0.19    0.03    2.13   -0.05    0.00    0.00      -0.11   11.85   -0.28
#  46   -8.94   -0.02    0.00    4.22    0.16    0.00    0.00      -4.57   15.12    0.59
#  47   -4.35   -0.01    0.00    2.05    0.07    0.00    0.00      -2.25   11.07    0.36

@<TRIPOS>MOLECULE
             1478        13
   47    50     0     0     0



@<TRIPOS>ATOM
      1 C1         15.7221    14.7310    66.3963 C.3        1          -0.1564
      2 C2         17.1681    15.0606    66.0200 C.3        1           0.0504
      3 O1         17.5877    14.2101    64.9511 O.3        1          -0.3042
      4 C3         18.8563    14.3742    64.4942 C.ar       1           0.1719
      5 C4         19.5437    13.2810    63.9562 C.ar       1          -0.1774
      6 C5         20.8145    13.4178    63.4923 C.ar       1          -0.0554
      7 C6         21.4495    14.6706    63.5511 C.ar       1          -0.1364
      8 C7         22.7617    14.8423    63.0787 C.ar       1          -0.0298
      9 C8         23.3265    16.1070    63.1674 C.ar       1          -0.1213
     10 C9         22.5800    17.1610    63.7186 C.ar       1           0.1799
     11 N1         21.3588    16.9807    64.1535 N.ar       1          -0.4573
     12 C10        20.7610    15.7850    64.0941 C.ar       1           0.1844
     13 C11        19.4475    15.6150    64.5609 C.ar       1          -0.1477
     14 C12        24.7077    16.3433    62.6845 C.2        1           0.2091
     15 N2         25.7949    15.7511    63.1192 N.2        1          -0.1968
     16 N3         26.9093    16.2333    62.4243 N.pl3      1          -0.3217
     17 C13        28.2927    15.8016    62.6395 C.3        1           0.1455
     18 C14        29.2180    16.5612    61.6867 C.3        1          -0.1676
     19 C15        28.6987    16.0933    64.0855 C.3        1          -0.1675
     20 C16        26.5081    17.1667    61.5156 C.ar       1           0.3873
     21 N4         27.1354    17.9242    60.6157 N.ar       1          -0.4837
     22 C17        26.4623    18.7597    59.8558 C.ar       1           0.4184
     23 N5         25.1506    18.8980    59.9347 N.ar       1          -0.5690
     24 H1         24.7014    19.5288    59.3506 H          1           0.4514
     25 C18        24.4362    18.1867    60.8013 C.ar       1           0.5620
     26 N6         23.0649    18.3353    60.8789 N.pl3      1          -0.8003
     27 C19        25.1098    17.2752    61.6312 C.ar       1          -0.3028
     28 H2         15.4019    15.3797    67.2116 H          1           0.0701
     29 H3         15.0768    14.8885    65.5320 H          1           0.0844
     30 H4         15.6573    13.6901    66.7132 H          1           0.0705
     31 H5         17.2328    16.1014    65.7030 H          1           0.0681
     32 H6         17.8132    14.9031    66.8843 H          1           0.0675
     33 H7         19.0595    12.3167    63.9093 H          1           0.1440
     34 H8         21.3348    12.5660    63.0800 H          1           0.1404
     35 H9         23.3145    14.0146    62.6595 H          1           0.1439
     36 H10        23.0241    18.1432    63.7854 H          1           0.1703
     37 H11        18.9056    16.4527    64.9742 H          1           0.1531
     38 H12        28.3733    14.7316    62.4482 H          1           0.1246
     39 H13        30.2472    16.2401    61.8469 H          1           0.0780
     40 H14        28.9288    16.3534    60.6566 H          1           0.0936
     41 H15        29.1374    17.6313    61.8780 H          1           0.0657
     42 H16        29.7280    15.7723    64.2456 H          1           0.0648
     43 H17        28.6181    17.1634    64.2767 H          1           0.0937
     44 H18        28.0396    15.5522    64.7642 H          1           0.0776
     45 H19        27.0039    19.3579    59.1380 H          1           0.2544
     46 H20        22.6115    18.9649    60.2966 H          1           0.4298
     47 H21        22.5554    17.8100    61.5156 H          1           0.4403
@<TRIPOS>BOND
     1    1    2 1
     2    1   28 1
     3    1   29 1
     4    1   30 1
     5    2    3 1
     6    2   31 1
     7    2   32 1
     8    3    4 1
     9    4   13 ar
    10    4    5 ar
    11    5    6 ar
    12    5   33 1
    13    6    7 ar
    14    6   34 1
    15    7   12 ar
    16    7    8 ar
    17    8    9 ar
    18    8   35 1
    19    9   10 ar
    20    9   14 1
    21   10   11 ar
    22   10   36 1
    23   11   12 ar
    24   12   13 ar
    25   13   37 1
    26   14   27 1
    27   14   15 2
    28   15   16 1
    29   16   17 1
    30   16   20 1
    31   17   18 1
    32   17   19 1
    33   17   38 1
    34   18   39 1
    35   18   40 1
    36   18   41 1
    37   19   42 1
    38   19   43 1
    39   19   44 1
    40   20   27 ar
    41   20   21 ar
    42   21   22 ar
    43   22   23 ar
    44   22   45 1
    45   23   24 1
    46   23   25 ar
    47   25   26 1
    48   25   27 ar
    49   26   46 1
    50   26   47 1
##########                 Name:                 1478
##########          Protonation:                   13
##########               SMILES:   CCOc1ccc2cc(cnc2c1)c3c4c([nH+]cnc4n(n3)C(C)C)N
##########            Long Name:   3-(7-ethoxy-3-quinolyl)-1-isopropyl-pyrazolo[3,4-d]pyrimidin-5-ium-4-amine
##########          FlexRecCode: 1
##########               Number:                   56
##########   Ligand Source File: /raid1/people/rgc/Examples/tdt/part3/ligand22set/build/ligand22set-0000001.db2.g
##########           GlobalRank: 16
##########                 Rank:                    2
##########               Setnum:                   89
##########             Matchnum:                 6408
##########                Cloud:                    1
##########        Electrostatic:           -13.558225
##########        Van der Waals:           -26.466553
##########  Ligand Polar Desolv:             8.368263
########## Ligand Apolar Desolv:            -3.054944
##########      Internal Energy:             0.000000
##########      Receptor Energy: 0.0
########## Receptor Desolvation:             0.000000
########## Receptor Hydrophobic:             0.000000
##########         Total Energy: -34.71
##########        Ligand Charge:             1.000000
##########            Arbitrary:    +999.9990
##########     heavy atom count:   26
##########           pose count:    5
##########        Ligand Energy:             0.000000
# num electro vdwattr vdwrepu polsolv apolsol rdesolv rhydroe totalscore fullpol fullapo
#   1   -2.15   -2.17    0.81   -0.78   -0.12    0.00    0.00      -4.41   -1.31   -0.21
#   2    0.66   -1.61    0.50    0.25   -0.07    0.00    0.00      -0.26    0.39   -0.11
#   3   -2.27   -3.02    2.83   -1.17    0.54    0.00    0.00      -3.09   -1.92    0.89
#   4    1.29   -2.06    0.52    0.56   -0.18    0.00    0.00       0.14    0.95   -0.31
#   5   -0.68   -2.42    0.71   -1.62   -0.27    0.00    0.00      -4.28   -2.63   -0.43
#   6   -0.20   -2.02    0.42   -0.05   -0.28    0.00    0.00      -2.14   -0.09   -0.46
#   7   -0.44   -1.69    0.45   -1.04   -0.21    0.00    0.00      -2.93   -1.95   -0.40
#   8    0.01   -1.75    0.74    0.21   -0.15    0.00    0.00      -0.93    0.47   -0.33
#   9    0.23   -1.37    0.20   -0.59   -0.15    0.00    0.00      -1.68   -1.48   -0.38
#  10   -0.05   -1.96    0.48    0.67   -0.43    0.00    0.00      -1.29    1.49   -0.96
#  11   -2.56   -3.70    4.16   -1.51    0.95    0.00    0.00      -2.67   -3.17    1.99
#  12    1.31   -2.25    1.20    0.42   -0.35    0.00    0.00       0.33    0.89   -0.73
#  13   -1.68   -2.29    1.00   -0.61   -0.26    0.00    0.00      -3.84   -1.13   -0.47
#  14   -1.02   -1.17    0.17    0.97   -0.24    0.00    0.00      -1.29    2.99   -0.75
#  15    0.76   -1.46    0.35   -1.08    0.36    0.00    0.00      -1.07   -3.46    1.15
#  16    1.25   -0.85    0.15   -1.09    0.21    0.00    0.00      -0.33   -4.97    0.94
#  17   -0.18   -0.35    0.03    0.37   -0.06    0.00    0.00      -0.19    2.09   -0.35
#  18    0.01   -0.63    0.23   -0.34   -0.04    0.00    0.00      -0.77   -1.85   -0.19
#  19    0.09   -0.41    0.02   -0.44   -0.04    0.00    0.00      -0.78   -1.87   -0.19
#  20   -2.10   -0.63    0.05    1.44   -0.47    0.00    0.00      -1.70    6.69   -2.19
#  21    2.29   -0.47    0.01   -2.45    0.42    0.00    0.00      -0.19  -12.12    2.09
#  22   -3.98   -0.85    0.13    3.43   -0.80    0.00    0.00      -2.08   13.49   -3.15
#  23    9.81   -1.42    0.51   -4.68    0.29    0.00    0.00       4.51  -16.16    1.00
#  24  -12.75   -0.06    0.01    4.62    0.15    0.00    0.00      -8.03   17.79    0.59
#  25   -7.41   -0.88    0.07    4.87   -0.65    0.00    0.00      -4.00   15.91   -2.14
#  26   11.93   -1.04    0.08   -8.41    0.31    0.00    0.00       2.86  -21.95    0.81
#  27    2.37   -0.78    0.06   -1.81   -0.12    0.00    0.00      -0.28   -6.54   -0.44
#  28    0.91   -0.93    0.78    0.17   -0.16    0.00    0.00       0.77    0.30   -0.28
#  29    1.21   -0.55    0.17    0.60   -0.14    0.00    0.00       1.29    1.19   -0.28
#  30    0.84   -1.28    1.56    0.13   -0.17    0.00    0.00       1.09    0.22   -0.28
#  31    1.24   -0.49    0.14    0.46   -0.11    0.00    0.00       1.23    1.07   -0.26
#  32    0.75   -0.53    0.26    0.53   -0.11    0.00    0.00       0.89    1.27   -0.27
#  33    0.05   -0.88    0.72    1.68   -0.13    0.00    0.00       1.44    2.81   -0.22
#  34    0.56   -0.57    0.14    3.03   -0.16    0.00    0.00       2.99    5.30   -0.28
#  35   -0.43   -0.40    0.15    1.99   -0.09    0.00    0.00       1.23    5.61   -0.25
#  36   -0.51   -0.41    0.06    0.57   -0.11    0.00    0.00      -0.40    1.44   -0.28
#  37    2.64   -0.68    0.45   -0.09   -0.12    0.00    0.00       2.20   -0.20   -0.28
#  38   -0.05   -0.06    0.00    0.12   -0.01    0.00    0.00       0.00    2.26   -0.28
#  39    0.08   -0.07    0.00    0.02   -0.02    0.00    0.00       0.02    0.28   -0.28
#  40    0.10   -0.18    0.07    0.14   -0.03    0.00    0.00       0.10    1.20   -0.28
#  41   -0.11   -0.59    0.66    0.17   -0.07    0.00    0.00       0.06    0.66   -0.28
#  42    0.03   -0.07    0.00    0.05   -0.02    0.00    0.00      -0.02    0.71   -0.28
#  43   -0.03   -0.23    0.07    0.23   -0.05    0.00    0.00      -0.02    1.22   -0.28
#  44   -0.09   -0.16    0.01    0.05   -0.05    0.00    0.00      -0.24    0.27   -0.28
#  45   -2.02   -0.19    0.03    2.13   -0.05    0.00    0.00      -0.11   11.85   -0.28
#  46   -8.94   -0.02    0.00    4.22    0.16    0.00    0.00      -4.57   15.12    0.59
#  47   -4.35   -0.01    0.00    2.05    0.07    0.00    0.00      -2.25   11.07    0.36

@<TRIPOS>MOLECULE
             1478        13
   47    50     0     0     0



@<TRIPOS>ATOM
      1 C1         16.5738    15.7604    63.3990 C.3        1          -0.1564
      2 C2         16.7153    15.3386    64.8628 C.3        1           0.0504
      3 O1         17.5877    14.2101    64.9511 O.3        1          -0.3042
      4 C3         18.8563    14.3742    64.4942 C.ar       1           0.1719
      5 C4         19.5437    13.2810    63.9562 C.ar       1          -0.1774
      6 C5         20.8145    13.4178    63.4923 C.ar       1          -0.0554
      7 C6         21.4495    14.6706    63.5511 C.ar       1          -0.1364
      8 C7         22.7617    14.8423    63.0787 C.ar       1          -0.0298
      9 C8         23.3265    16.1070    63.1674 C.ar       1          -0.1213
     10 C9         22.5800    17.1610    63.7186 C.ar       1           0.1799
     11 N1         21.3588    16.9807    64.1535 N.ar       1          -0.4573
     12 C10        20.7610    15.7850    64.0941 C.ar       1           0.1844
     13 C11        19.4475    15.6150    64.5609 C.ar       1          -0.1477
     14 C12        24.7077    16.3433    62.6845 C.2        1           0.2091
     15 N2         25.7949    15.7511    63.1192 N.2        1          -0.1968
     16 N3         26.9093    16.2333    62.4243 N.pl3      1          -0.3217
     17 C13        28.2927    15.8016    62.6395 C.3        1           0.1455
     18 C14        28.9434    16.6870    63.7043 C.3        1          -0.1676
     19 C15        28.3054    14.3457    63.1095 C.3        1          -0.1675
     20 C16        26.5081    17.1667    61.5156 C.ar       1           0.3873
     21 N4         27.1354    17.9242    60.6157 N.ar       1          -0.4837
     22 C17        26.4623    18.7597    59.8558 C.ar       1           0.4184
     23 N5         25.1506    18.8980    59.9347 N.ar       1          -0.5690
     24 H1         24.7014    19.5288    59.3506 H          1           0.4514
     25 C18        24.4362    18.1867    60.8013 C.ar       1           0.5620
     26 N6         23.0649    18.3353    60.8789 N.pl3      1          -0.8003
     27 C19        25.1098    17.2752    61.6312 C.ar       1          -0.3028
     28 H2         15.9084    16.6210    63.3315 H          1           0.0701
     29 H3         17.5532    16.0263    63.0012 H          1           0.0844
     30 H4         16.1591    14.9344    62.8211 H          1           0.0705
     31 H5         17.1301    16.1644    65.4405 H          1           0.0681
     32 H6         15.7360    15.0726    65.2606 H          1           0.0675
     33 H7         19.0595    12.3167    63.9093 H          1           0.1440
     34 H8         21.3348    12.5660    63.0800 H          1           0.1404
     35 H9         23.3145    14.0146    62.6595 H          1           0.1439
     36 H10        23.0241    18.1432    63.7854 H          1           0.1703
     37 H11        18.9056    16.4527    64.9742 H          1           0.1531
     38 H12        28.8492    15.8871    61.7062 H          1           0.1246
     39 H13        29.9726    16.3659    63.8644 H          1           0.0780
     40 H14        28.9344    17.7242    63.3694 H          1           0.0936
     41 H15        28.3868    16.6016    64.6375 H          1           0.0657
     42 H16        29.3347    14.0246    63.2697 H          1           0.0648
     43 H17        27.7488    14.2604    64.0428 H          1           0.0937
     44 H18        27.8419    13.7150    62.3510 H          1           0.0776
     45 H19        27.0039    19.3579    59.1380 H          1           0.2544
     46 H20        22.6115    18.9649    60.2966 H          1           0.4298
     47 H21        22.5554    17.8100    61.5156 H          1           0.4403
@<TRIPOS>BOND
     1    1    2 1
     2    1   28 1
     3    1   29 1
     4    1   30 1
     5    2    3 1
     6    2   31 1
     7    2   32 1
     8    3    4 1
     9    4   13 ar
    10    4    5 ar
    11    5    6 ar
    12    5   33 1
    13    6    7 ar
    14    6   34 1
    15    7   12 ar
    16    7    8 ar
    17    8    9 ar
    18    8   35 1
    19    9   10 ar
    20    9   14 1
    21   10   11 ar
    22   10   36 1
    23   11   12 ar
    24   12   13 ar
    25   13   37 1
    26   14   27 1
    27   14   15 2
    28   15   16 1
    29   16   17 1
    30   16   20 1
    31   17   18 1
    32   17   19 1
    33   17   38 1
    34   18   39 1
    35   18   40 1
    36   18   41 1
    37   19   42 1
    38   19   43 1
    39   19   44 1
    40   20   27 ar
    41   20   21 ar
    42   21   22 ar
    43   22   23 ar
    44   22   45 1
    45   23   24 1
    46   23   25 ar
    47   25   26 1
    48   25   27 ar
    49   26   46 1
    50   26   47 1
##########                 Name:                 1478
##########          Protonation:                   13
##########               SMILES:   CCOc1ccc2cc(cnc2c1)c3c4c([nH+]cnc4n(n3)C(C)C)N
##########            Long Name:   3-(7-ethoxy-3-quinolyl)-1-isopropyl-pyrazolo[3,4-d]pyrimidin-5-ium-4-amine
##########          FlexRecCode: 1
##########               Number:                   56
##########   Ligand Source File: /raid1/people/rgc/Examples/tdt/part3/ligand22set/build/ligand22set-0000001.db2.g
##########           GlobalRank: 16
##########                 Rank:                    3
##########               Setnum:                  119
##########             Matchnum:                 6408
##########                Cloud:                    1
##########        Electrostatic:           -13.556403
##########        Van der Waals:           -26.626598
##########  Ligand Polar Desolv:             8.545320
########## Ligand Apolar Desolv:            -3.041953
##########      Internal Energy:             0.000000
##########      Receptor Energy: 0.0
########## Receptor Desolvation:             0.000000
########## Receptor Hydrophobic:             0.000000
##########         Total Energy: -34.68
##########        Ligand Charge:             1.000000
##########            Arbitrary:    +999.9990
##########     heavy atom count:   26
##########           pose count:    5
##########        Ligand Energy:             0.000000
# num electro vdwattr vdwrepu polsolv apolsol rdesolv rhydroe totalscore fullpol fullapo
#   1   -2.15   -2.17    0.81   -0.78   -0.12    0.00    0.00      -4.41   -1.31   -0.21
#   2    0.66   -1.61    0.50    0.25   -0.07    0.00    0.00      -0.26    0.39   -0.11
#   3   -2.27   -3.02    2.83   -1.17    0.54    0.00    0.00      -3.09   -1.92    0.89
#   4    1.29   -2.06    0.52    0.56   -0.18    0.00    0.00       0.14    0.95   -0.31
#   5   -0.68   -2.42    0.71   -1.62   -0.27    0.00    0.00      -4.28   -2.63   -0.43
#   6   -0.20   -2.02    0.42   -0.05   -0.28    0.00    0.00      -2.14   -0.09   -0.46
#   7   -0.44   -1.69    0.45   -1.04   -0.21    0.00    0.00      -2.93   -1.95   -0.40
#   8    0.01   -1.75    0.74    0.21   -0.15    0.00    0.00      -0.93    0.47   -0.33
#   9    0.23   -1.37    0.20   -0.59   -0.15    0.00    0.00      -1.68   -1.48   -0.38
#  10   -0.05   -1.96    0.48    0.67   -0.43    0.00    0.00      -1.29    1.49   -0.96
#  11   -2.56   -3.70    4.16   -1.51    0.95    0.00    0.00      -2.67   -3.17    1.99
#  12    1.31   -2.25    1.20    0.42   -0.35    0.00    0.00       0.33    0.89   -0.73
#  13   -1.68   -2.29    1.00   -0.61   -0.26    0.00    0.00      -3.84   -1.13   -0.47
#  14   -1.02   -1.17    0.17    0.97   -0.24    0.00    0.00      -1.29    2.99   -0.75
#  15    0.76   -1.46    0.35   -1.08    0.36    0.00    0.00      -1.07   -3.46    1.15
#  16    1.25   -0.85    0.15   -1.09    0.21    0.00    0.00      -0.33   -4.97    0.94
#  17   -0.18   -0.35    0.03    0.37   -0.06    0.00    0.00      -0.19    2.09   -0.35
#  18    0.06   -0.53    0.08   -0.42   -0.04    0.00    0.00      -0.85   -1.85   -0.19
#  19    0.02   -0.29    0.01   -0.33   -0.03    0.00    0.00      -0.62   -1.87   -0.19
#  20   -2.10   -0.63    0.05    1.44   -0.47    0.00    0.00      -1.70    6.69   -2.19
#  21    2.29   -0.47    0.01   -2.45    0.42    0.00    0.00      -0.19  -12.12    2.09
#  22   -3.98   -0.85    0.13    3.43   -0.80    0.00    0.00      -2.08   13.49   -3.15
#  23    9.81   -1.42    0.51   -4.68    0.29    0.00    0.00       4.51  -16.16    1.00
#  24  -12.75   -0.06    0.01    4.62    0.15    0.00    0.00      -8.03   17.79    0.59
#  25   -7.41   -0.88    0.07    4.87   -0.65    0.00    0.00      -4.00   15.91   -2.14
#  26   11.93   -1.04    0.08   -8.41    0.31    0.00    0.00       2.86  -21.95    0.81
#  27    2.37   -0.78    0.06   -1.81   -0.12    0.00    0.00      -0.28   -6.54   -0.44
#  28    0.91   -0.93    0.78    0.17   -0.16    0.00    0.00       0.77    0.30   -0.28
#  29    1.21   -0.55    0.17    0.60   -0.14    0.00    0.00       1.29    1.19   -0.28
#  30    0.84   -1.28    1.56    0.13   -0.17    0.00    0.00       1.09    0.22   -0.28
#  31    1.24   -0.49    0.14    0.46   -0.11    0.00    0.00       1.23    1.07   -0.26
#  32    0.75   -0.53    0.26    0.53   -0.11    0.00    0.00       0.89    1.27   -0.27
#  33    0.05   -0.88    0.72    1.68   -0.13    0.00    0.00       1.44    2.81   -0.22
#  34    0.56   -0.57    0.14    3.03   -0.16    0.00    0.00       2.99    5.30   -0.28
#  35   -0.43   -0.40    0.15    1.99   -0.09    0.00    0.00       1.23    5.61   -0.25
#  36   -0.51   -0.41    0.06    0.57   -0.11    0.00    0.00      -0.40    1.44   -0.28
#  37    2.64   -0.68    0.45   -0.09   -0.12    0.00    0.00       2.20   -0.20   -0.28
#  38   -0.04   -0.09    0.01    0.20   -0.03    0.00    0.00       0.06    2.26   -0.28
#  39    0.05   -0.08    0.00    0.02   -0.02    0.00    0.00      -0.03    0.28   -0.28
#  40   -0.02   -0.41    0.23    0.32   -0.07    0.00    0.00       0.04    1.20   -0.28
#  41   -0.05   -0.16    0.01    0.10   -0.04    0.00    0.00      -0.14    0.66   -0.28
#  42    0.04   -0.05    0.00    0.04   -0.02    0.00    0.00       0.01    0.71   -0.28
#  43   -0.02   -0.17    0.02    0.21   -0.05    0.00    0.00      -0.01    1.22   -0.28
#  44   -0.01   -0.07    0.00    0.02   -0.02    0.00    0.00      -0.08    0.27   -0.28
#  45   -2.02   -0.19    0.03    2.13   -0.05    0.00    0.00      -0.11   11.85   -0.28
#  46   -8.94   -0.02    0.00    4.22    0.16    0.00    0.00      -4.57   15.12    0.59
#  47   -4.35   -0.01    0.00    2.05    0.07    0.00    0.00      -2.25   11.07    0.36

@<TRIPOS>MOLECULE
             1478        13
   47    50     0     0     0



@<TRIPOS>ATOM
      1 C1         16.5738    15.7604    63.3990 C.3        1          -0.1564
      2 C2         16.7153    15.3386    64.8628 C.3        1           0.0504
      3 O1         17.5877    14.2101    64.9511 O.3        1          -0.3042
      4 C3         18.8563    14.3742    64.4942 C.ar       1           0.1719
      5 C4         19.5437    13.2810    63.9562 C.ar       1          -0.1774
      6 C5         20.8145    13.4178    63.4923 C.ar       1          -0.0554
      7 C6         21.4495    14.6706    63.5511 C.ar       1          -0.1364
      8 C7         22.7617    14.8423    63.0787 C.ar       1          -0.0298
      9 C8         23.3265    16.1070    63.1674 C.ar       1          -0.1213
     10 C9         22.5800    17.1610    63.7186 C.ar       1           0.1799
     11 N1         21.3588    16.9807    64.1535 N.ar       1          -0.4573
     12 C10        20.7610    15.7850    64.0941 C.ar       1           0.1844
     13 C11        19.4475    15.6150    64.5609 C.ar       1          -0.1477
     14 C12        24.7077    16.3433    62.6845 C.2        1           0.2091
     15 N2         25.7949    15.7511    63.1192 N.2        1          -0.1968
     16 N3         26.9093    16.2333    62.4243 N.pl3      1          -0.3217
     17 C13        28.2927    15.8016    62.6395 C.3        1           0.1455
     18 C14        28.3305    14.7416    63.7422 C.3        1          -0.1676
     19 C15        28.8497    15.2095    61.3434 C.3        1          -0.1675
     20 C16        26.5081    17.1667    61.5156 C.ar       1           0.3873
     21 N4         27.1354    17.9242    60.6157 N.ar       1          -0.4837
     22 C17        26.4623    18.7597    59.8558 C.ar       1           0.4184
     23 N5         25.1506    18.8980    59.9347 N.ar       1          -0.5690
     24 H1         24.7014    19.5288    59.3506 H          1           0.4514
     25 C18        24.4362    18.1867    60.8013 C.ar       1           0.5620
     26 N6         23.0649    18.3353    60.8789 N.pl3      1          -0.8003
     27 C19        25.1098    17.2752    61.6312 C.ar       1          -0.3028
     28 H2         15.9084    16.6210    63.3315 H          1           0.0701
     29 H3         17.5532    16.0263    63.0012 H          1           0.0844
     30 H4         16.1591    14.9344    62.8211 H          1           0.0705
     31 H5         17.1301    16.1644    65.4405 H          1           0.0681
     32 H6         15.7360    15.0726    65.2606 H          1           0.0675
     33 H7         19.0595    12.3167    63.9093 H          1           0.1440
     34 H8         21.3348    12.5660    63.0800 H          1           0.1404
     35 H9         23.3145    14.0146    62.6595 H          1           0.1439
     36 H10        23.0241    18.1432    63.7854 H          1           0.1703
     37 H11        18.9056    16.4527    64.9742 H          1           0.1531
     38 H12        28.8980    16.6577    62.9375 H          1           0.1246
     39 H13        29.3599    14.4205    63.9023 H          1           0.0780
     40 H14        27.9338    15.1635    64.6655 H          1           0.0936
     41 H15        27.7251    13.8856    63.4442 H          1           0.0657
     42 H16        29.8789    14.8885    61.5036 H          1           0.0648
     43 H17        28.2443    14.3535    61.0454 H          1           0.0937
     44 H18        28.8228    15.9646    60.5578 H          1           0.0776
     45 H19        27.0039    19.3579    59.1380 H          1           0.2544
     46 H20        22.6115    18.9649    60.2966 H          1           0.4298
     47 H21        22.5554    17.8100    61.5156 H          1           0.4403
@<TRIPOS>BOND
     1    1    2 1
     2    1   28 1
     3    1   29 1
     4    1   30 1
     5    2    3 1
     6    2   31 1
     7    2   32 1
     8    3    4 1
     9    4   13 ar
    10    4    5 ar
    11    5    6 ar
    12    5   33 1
    13    6    7 ar
    14    6   34 1
    15    7   12 ar
    16    7    8 ar
    17    8    9 ar
    18    8   35 1
    19    9   10 ar
    20    9   14 1
    21   10   11 ar
    22   10   36 1
    23   11   12 ar
    24   12   13 ar
    25   13   37 1
    26   14   27 1
    27   14   15 2
    28   15   16 1
    29   16   17 1
    30   16   20 1
    31   17   18 1
    32   17   19 1
    33   17   38 1
    34   18   39 1
    35   18   40 1
    36   18   41 1
    37   19   42 1
    38   19   43 1
    39   19   44 1
    40   20   27 ar
    41   20   21 ar
    42   21   22 ar
    43   22   23 ar
    44   22   45 1
    45   23   24 1
    46   23   25 ar
    47   25   26 1
    48   25   27 ar
    49   26   46 1
    50   26   47 1
##########                 Name:                 1478
##########          Protonation:                   13
##########               SMILES:   CCOc1ccc2cc(cnc2c1)c3c4c([nH+]cnc4n(n3)C(C)C)N
##########            Long Name:   3-(7-ethoxy-3-quinolyl)-1-isopropyl-pyrazolo[3,4-d]pyrimidin-5-ium-4-amine
##########          FlexRecCode: 1
##########               Number:                   56
##########   Ligand Source File: /raid1/people/rgc/Examples/tdt/part3/ligand22set/build/ligand22set-0000001.db2.g
##########           GlobalRank: 16
##########                 Rank:                    4
##########               Setnum:                   13
##########             Matchnum:                 6408
##########                Cloud:                    1
##########        Electrostatic:           -15.185580
##########        Van der Waals:           -24.840584
##########  Ligand Polar Desolv:             8.663000
########## Ligand Apolar Desolv:            -3.180970
##########      Internal Energy:             0.000000
##########      Receptor Energy: 0.0
########## Receptor Desolvation:             0.000000
########## Receptor Hydrophobic:             0.000000
##########         Total Energy: -34.54
##########        Ligand Charge:             1.000000
##########            Arbitrary:    +999.9990
##########     heavy atom count:   26
##########           pose count:    5
##########        Ligand Energy:             0.000000
# num electro vdwattr vdwrepu polsolv apolsol rdesolv rhydroe totalscore fullpol fullapo
#   1   -0.28   -2.63    1.28   -0.87   -0.14    0.00    0.00      -2.64   -1.31   -0.21
#   2    0.47   -1.61    0.27    0.25   -0.07    0.00    0.00      -0.69    0.39   -0.11
#   3   -2.27   -3.02    2.83   -1.17    0.54    0.00    0.00      -3.09   -1.92    0.89
#   4    1.29   -2.06    0.52    0.56   -0.18    0.00    0.00       0.14    0.95   -0.31
#   5   -0.68   -2.42    0.71   -1.62   -0.27    0.00    0.00      -4.28   -2.63   -0.43
#   6   -0.20   -2.02    0.42   -0.05   -0.28    0.00    0.00      -2.14   -0.09   -0.46
#   7   -0.44   -1.69    0.45   -1.04   -0.21    0.00    0.00      -2.93   -1.95   -0.40
#   8    0.01   -1.75    0.74    0.21   -0.15    0.00    0.00      -0.93    0.47   -0.33
#   9    0.23   -1.37    0.20   -0.59   -0.15    0.00    0.00      -1.68   -1.48   -0.38
#  10   -0.05   -1.96    0.48    0.67   -0.43    0.00    0.00      -1.29    1.49   -0.96
#  11   -2.56   -3.70    4.16   -1.51    0.95    0.00    0.00      -2.67   -3.17    1.99
#  12    1.31   -2.25    1.20    0.42   -0.35    0.00    0.00       0.33    0.89   -0.73
#  13   -1.68   -2.29    1.00   -0.61   -0.26    0.00    0.00      -3.84   -1.13   -0.47
#  14   -1.02   -1.17    0.17    0.97   -0.24    0.00    0.00      -1.29    2.99   -0.75
#  15    0.76   -1.46    0.35   -1.08    0.36    0.00    0.00      -1.07   -3.46    1.15
#  16    1.25   -0.85    0.15   -1.09    0.21    0.00    0.00      -0.33   -4.97    0.94
#  17   -0.18   -0.35    0.03    0.37   -0.06    0.00    0.00      -0.19    2.09   -0.35
#  18    0.07   -0.70    0.15   -0.43   -0.04    0.00    0.00      -0.95   -1.85   -0.19
#  19    0.05   -0.37    0.02   -0.39   -0.04    0.00    0.00      -0.73   -1.87   -0.19
#  20   -2.10   -0.63    0.05    1.44   -0.47    0.00    0.00      -1.70    6.69   -2.19
#  21    2.29   -0.47    0.01   -2.45    0.42    0.00    0.00      -0.19  -12.12    2.09
#  22   -3.98   -0.85    0.13    3.43   -0.80    0.00    0.00      -2.08   13.49   -3.15
#  23    9.81   -1.42    0.51   -4.68    0.29    0.00    0.00       4.51  -16.16    1.00
#  24  -12.75   -0.06    0.01    4.62    0.15    0.00    0.00      -8.03   17.79    0.59
#  25   -7.41   -0.88    0.07    4.87   -0.65    0.00    0.00      -4.00   15.91   -2.14
#  26   11.93   -1.04    0.08   -8.41    0.31    0.00    0.00       2.86  -21.95    0.81
#  27    2.37   -0.78    0.06   -1.81   -0.12    0.00    0.00      -0.28   -6.54   -0.44
#  28    0.29   -0.91    0.43    0.18   -0.17    0.00    0.00      -0.18    0.30   -0.28
#  29    0.32   -0.96    0.87    0.64   -0.15    0.00    0.00       0.72    1.19   -0.28
#  30   -0.60   -1.64    4.39    0.14   -0.18    0.00    0.00       2.10    0.22   -0.28
#  31    1.12   -0.47    0.11    0.45   -0.11    0.00    0.00       1.10    1.07   -0.26
#  32    0.62   -0.56    0.10    0.72   -0.15    0.00    0.00       0.72    1.27   -0.27
#  33    0.05   -0.88    0.72    1.68   -0.13    0.00    0.00       1.44    2.81   -0.22
#  34    0.56   -0.57    0.14    3.03   -0.16    0.00    0.00       2.99    5.30   -0.28
#  35   -0.43   -0.40    0.15    1.99   -0.09    0.00    0.00       1.23    5.61   -0.25
#  36   -0.51   -0.41    0.06    0.57   -0.11    0.00    0.00      -0.40    1.44   -0.28
#  37    2.64   -0.68    0.45   -0.09   -0.12    0.00    0.00       2.20   -0.20   -0.28
#  38   -0.04   -0.06    0.00    0.15   -0.02    0.00    0.00       0.03    2.26   -0.28
#  39    0.06   -0.09    0.00    0.03   -0.03    0.00    0.00      -0.03    0.28   -0.28
#  40   -0.13   -0.53    0.37    0.33   -0.08    0.00    0.00      -0.04    1.20   -0.28
#  41   -0.01   -0.30    0.14    0.14   -0.06    0.00    0.00      -0.09    0.66   -0.28
#  42    0.04   -0.07    0.00    0.05   -0.02    0.00    0.00       0.00    0.71   -0.28
#  43   -0.09   -0.18    0.01    0.22   -0.05    0.00    0.00      -0.09    1.22   -0.28
#  44    0.00   -0.13    0.01    0.04   -0.04    0.00    0.00      -0.12    0.27   -0.28
#  45   -2.02   -0.19    0.03    2.13   -0.05    0.00    0.00      -0.11   11.85   -0.28
#  46   -8.94   -0.02    0.00    4.22    0.16    0.00    0.00      -4.57   15.12    0.59
#  47   -4.35   -0.01    0.00    2.05    0.07    0.00    0.00      -2.25   11.07    0.36

@<TRIPOS>MOLECULE
             1478        13
   47    50     0     0     0



@<TRIPOS>ATOM
      1 C1         16.1310    14.3303    66.8756 C.3        1          -0.1564
      2 C2         17.1681    15.0606    66.0200 C.3        1           0.0504
      3 O1         17.5877    14.2101    64.9511 O.3        1          -0.3042
      4 C3         18.8563    14.3742    64.4942 C.ar       1           0.1719
      5 C4         19.5437    13.2810    63.9562 C.ar       1          -0.1774
      6 C5         20.8145    13.4178    63.4923 C.ar       1          -0.0554
      7 C6         21.4495    14.6706    63.5511 C.ar       1          -0.1364
      8 C7         22.7617    14.8423    63.0787 C.ar       1          -0.0298
      9 C8         23.3265    16.1070    63.1674 C.ar       1          -0.1213
     10 C9         22.5800    17.1610    63.7186 C.ar       1           0.1799
     11 N1         21.3588    16.9807    64.1535 N.ar       1          -0.4573
     12 C10        20.7610    15.7850    64.0941 C.ar       1           0.1844
     13 C11        19.4475    15.6150    64.5609 C.ar       1          -0.1477
     14 C12        24.7077    16.3433    62.6845 C.2        1           0.2091
     15 N2         25.7949    15.7511    63.1192 N.2        1          -0.1968
     16 N3         26.9093    16.2333    62.4243 N.pl3      1          -0.3217
     17 C13        28.2927    15.8016    62.6395 C.3        1           0.1455
     18 C14        28.4745    15.3813    64.0994 C.3        1          -0.1676
     19 C15        28.6052    14.6158    61.7246 C.3        1          -0.1675
     20 C16        26.5081    17.1667    61.5156 C.ar       1           0.3873
     21 N4         27.1354    17.9242    60.6157 N.ar       1          -0.4837
     22 C17        26.4623    18.7597    59.8558 C.ar       1           0.4184
     23 N5         25.1506    18.8980    59.9347 N.ar       1          -0.5690
     24 H1         24.7014    19.5288    59.3506 H          1           0.4514
     25 C18        24.4362    18.1867    60.8013 C.ar       1           0.5620
     26 N6         23.0649    18.3353    60.8789 N.pl3      1          -0.8003
     27 C19        25.1098    17.2752    61.6312 C.ar       1          -0.3028
     28 H2         15.8108    14.9789    67.6911 H          1           0.0701
     29 H3         15.2703    14.0695    66.2596 H          1           0.0844
     30 H4         16.5728    13.4221    67.2858 H          1           0.0705
     31 H5         16.7263    15.9686    65.6099 H          1           0.0681
     32 H6         18.0286    15.3214    66.6360 H          1           0.0675
     33 H7         19.0595    12.3167    63.9093 H          1           0.1440
     34 H8         21.3348    12.5660    63.0800 H          1           0.1404
     35 H9         23.3145    14.0146    62.6595 H          1           0.1439
     36 H10        23.0241    18.1432    63.7854 H          1           0.1703
     37 H11        18.9056    16.4527    64.9742 H          1           0.1531
     38 H12        28.9697    16.6249    62.4114 H          1           0.1246
     39 H13        29.5038    15.0602    64.2595 H          1           0.0780
     40 H14        28.2520    16.2261    64.7512 H          1           0.0936
     41 H15        27.7975    14.5581    64.3275 H          1           0.0657
     42 H16        29.6344    14.2948    61.8847 H          1           0.0648
     43 H17        27.9281    13.7927    61.9527 H          1           0.0937
     44 H18        28.4756    14.9153    60.6847 H          1           0.0776
     45 H19        27.0039    19.3579    59.1380 H          1           0.2544
     46 H20        22.6115    18.9649    60.2966 H          1           0.4298
     47 H21        22.5554    17.8100    61.5156 H          1           0.4403
@<TRIPOS>BOND
     1    1    2 1
     2    1   28 1
     3    1   29 1
     4    1   30 1
     5    2    3 1
     6    2   31 1
     7    2   32 1
     8    3    4 1
     9    4   13 ar
    10    4    5 ar
    11    5    6 ar
    12    5   33 1
    13    6    7 ar
    14    6   34 1
    15    7   12 ar
    16    7    8 ar
    17    8    9 ar
    18    8   35 1
    19    9   10 ar
    20    9   14 1
    21   10   11 ar
    22   10   36 1
    23   11   12 ar
    24   12   13 ar
    25   13   37 1
    26   14   27 1
    27   14   15 2
    28   15   16 1
    29   16   17 1
    30   16   20 1
    31   17   18 1
    32   17   19 1
    33   17   38 1
    34   18   39 1
    35   18   40 1
    36   18   41 1
    37   19   42 1
    38   19   43 1
    39   19   44 1
    40   20   27 ar
    41   20   21 ar
    42   21   22 ar
    43   22   23 ar
    44   22   45 1
    45   23   24 1
    46   23   25 ar
    47   25   26 1
    48   25   27 ar
    49   26   46 1
    50   26   47 1
##########                 Name:                 1478
##########          Protonation:                   13
##########               SMILES:   CCOc1ccc2cc(cnc2c1)c3c4c([nH+]cnc4n(n3)C(C)C)N
##########            Long Name:   3-(7-ethoxy-3-quinolyl)-1-isopropyl-pyrazolo[3,4-d]pyrimidin-5-ium-4-amine
##########          FlexRecCode: 1
##########               Number:                   56
##########   Ligand Source File: /raid1/people/rgc/Examples/tdt/part3/ligand22set/build/ligand22set-0000001.db2.g
##########           GlobalRank: 16
##########                 Rank:                    5
##########               Setnum:                   34
##########             Matchnum:                 8169
##########                Cloud:                    1
##########        Electrostatic:           -10.665193
##########        Van der Waals:           -29.351460
##########  Ligand Polar Desolv:             9.511832
########## Ligand Apolar Desolv:            -3.637691
##########      Internal Energy:             0.000000
##########      Receptor Energy: 0.0
########## Receptor Desolvation:             0.000000
########## Receptor Hydrophobic:             0.000000
##########         Total Energy: -34.14
##########        Ligand Charge:             1.000000
##########            Arbitrary:    +999.9990
##########     heavy atom count:   26
##########           pose count:    5
##########        Ligand Energy:             0.000000
# num electro vdwattr vdwrepu polsolv apolsol rdesolv rhydroe totalscore fullpol fullapo
#   1   -1.37   -1.69    0.60   -0.84   -0.14    0.00    0.00      -3.43   -1.31   -0.21
#   2    0.51   -1.95    0.76    0.24   -0.07    0.00    0.00      -0.51    0.39   -0.11
#   3   -3.46   -2.23    1.25   -1.20    0.56    0.00    0.00      -5.09   -1.92    0.89
#   4    2.19   -2.77    1.43    0.59   -0.19    0.00    0.00       1.26    0.95   -0.31
#   5   -1.44   -2.67    0.69   -1.70   -0.28    0.00    0.00      -5.41   -2.63   -0.43
#   6   -0.46   -2.44    0.52   -0.06   -0.28    0.00    0.00      -2.72   -0.09   -0.46
#   7   -1.58   -1.88    0.31   -1.14   -0.23    0.00    0.00      -4.52   -1.95   -0.40
#   8   -0.25   -2.01    0.74    0.24   -0.17    0.00    0.00      -1.45    0.47   -0.33
#   9   -0.70   -1.68    0.46   -0.69   -0.18    0.00    0.00      -2.80   -1.48   -0.38
#  10    1.15   -2.60    1.23    0.73   -0.47    0.00    0.00       0.04    1.49   -0.96
#  11   -5.35   -3.88    3.34   -1.76    1.11    0.00    0.00      -6.55   -3.17    1.99
#  12    2.77   -2.40    0.63    0.52   -0.43    0.00    0.00       1.09    0.89   -0.73
#  13   -2.18   -2.90    0.91   -0.67   -0.28    0.00    0.00      -5.12   -1.13   -0.47
#  14    0.01   -1.79    1.27    1.23   -0.31    0.00    0.00       0.41    2.99   -0.75
#  15    0.25   -2.16    1.93   -1.52    0.51    0.00    0.00      -1.00   -3.46    1.15
#  16    1.25   -1.36    0.30   -1.96    0.37    0.00    0.00      -1.40   -4.97    0.94
#  17   -0.74   -1.02    0.26    0.88   -0.15    0.00    0.00      -0.76    2.09   -0.35
#  18    0.52   -1.25    0.30   -0.77   -0.08    0.00    0.00      -1.27   -1.85   -0.19
#  19    0.42   -0.85    0.14   -0.66   -0.07    0.00    0.00      -1.01   -1.87   -0.19
#  20   -2.15   -1.02    0.12    2.24   -0.73    0.00    0.00      -1.55    6.69   -2.19
#  21    3.73   -0.84    0.08   -3.32    0.57    0.00    0.00       0.22  -12.12    2.09
#  22   -4.20   -0.87    0.08    3.78   -0.88    0.00    0.00      -2.10   13.49   -3.15
#  23    6.62   -1.08    0.08   -6.00    0.37    0.00    0.00      -0.01  -16.16    1.00
#  24   -6.70   -0.02    0.00    4.07    0.13    0.00    0.00      -2.52   17.79    0.59
#  25   -4.44   -1.18    0.09    6.54   -0.88    0.00    0.00       0.13   15.91   -2.14
#  26    5.44   -2.69    1.94  -10.14    0.37    0.00    0.00      -5.08  -21.95    0.81
#  27    1.31   -1.16    0.17   -2.57   -0.17    0.00    0.00      -2.43   -6.54   -0.44
#  28    0.53   -0.78    0.49    0.16   -0.15    0.00    0.00       0.25    0.30   -0.28
#  29    0.67   -0.36    0.06    0.52   -0.12    0.00    0.00       0.78    1.19   -0.28
#  30    0.68   -0.62    0.36    0.12   -0.15    0.00    0.00       0.39    0.22   -0.28
#  31    0.79   -0.84    0.66    0.55   -0.13    0.00    0.00       1.03    1.07   -0.26
#  32    0.51   -1.14    1.90    0.70   -0.15    0.00    0.00       1.82    1.27   -0.27
#  33    0.39   -0.62    0.13    1.68   -0.13    0.00    0.00       1.45    2.81   -0.22
#  34    0.84   -0.79    0.60    2.95   -0.16    0.00    0.00       3.44    5.30   -0.28
#  35    0.99   -0.67    0.80    2.21   -0.10    0.00    0.00       3.23    5.61   -0.25
#  36   -0.21   -0.59    0.32    0.65   -0.13    0.00    0.00       0.05    1.44   -0.28
#  37    1.51   -0.87    0.51   -0.12   -0.16    0.00    0.00       0.87   -0.20   -0.28
#  38   -1.29   -1.08    3.60    0.83   -0.10    0.00    0.00       1.96    2.26   -0.28
#  39   -0.11   -0.49    0.15    0.10   -0.10    0.00    0.00      -0.44    0.28   -0.28
#  40   -0.25   -0.66    0.25    0.60   -0.14    0.00    0.00      -0.20    1.20   -0.28
#  41   -0.22   -0.21    0.02    0.16   -0.07    0.00    0.00      -0.31    0.66   -0.28
#  42   -0.11   -0.18    0.01    0.13   -0.05    0.00    0.00      -0.19    0.71   -0.28
#  43   -0.32   -0.21    0.03    0.23   -0.05    0.00    0.00      -0.33    1.22   -0.28
#  44   -0.04   -0.64    0.49    0.09   -0.10    0.00    0.00      -0.19    0.27   -0.28
#  45   -2.36   -0.12    0.01    1.47   -0.03    0.00    0.00      -1.04   11.85   -0.28
#  46   -5.02   -0.06    0.00    6.33    0.25    0.00    0.00       1.50   15.12    0.59
#  47    1.18   -0.08    0.02    4.09    0.13    0.00    0.00       5.34   11.07    0.36

@<TRIPOS>MOLECULE
             1478        13
   47    50     0     0     0



@<TRIPOS>ATOM
      1 C1         12.3098    15.7905    64.6655 C.3        1          -0.1564
      2 C2         13.7707    15.8547    64.2152 C.3        1           0.0504
      3 O1         14.6123    15.3533    65.2555 O.3        1          -0.3042
      4 C3         15.9491    15.3410    65.0151 C.ar       1           0.1719
      5 C4         16.8227    14.8559    65.9942 C.ar       1          -0.1774
      6 C5         18.1651    14.8328    65.7793 C.ar       1          -0.0554
      7 C6         18.6865    15.3003    64.5603 C.ar       1          -0.1364
      8 C7         20.0691    15.2881    64.3099 C.ar       1          -0.0298
      9 C8         20.5140    15.7643    63.0844 C.ar       1          -0.1213
     10 C9         19.5824    16.2369    62.1461 C.ar       1           0.1799
     11 N1         18.2981    16.2403    62.3986 N.ar       1          -0.4573
     12 C10        17.8092    15.7936    63.5614 C.ar       1           0.1844
     13 C11        16.4270    15.8004    63.8093 C.ar       1          -0.1477
     14 C12        21.9622    15.7745    62.7687 C.2        1           0.2091
     15 N2         22.7543    14.7296    62.7194 N.2        1          -0.1968
     16 N3         24.0529    15.1323    62.3900 N.pl3      1          -0.3217
     17 C13        25.2047    14.2388    62.2444 C.3        1           0.1455
     18 C14        25.7610    14.3515    60.8235 C.3        1          -0.1676
     19 C15        26.2880    14.6354    63.2493 C.3        1          -0.1675
     20 C16        24.0800    16.4853    62.2254 C.ar       1           0.3873
     21 N4         25.0283    17.3694    61.9158 N.ar       1          -0.4837
     22 C17        24.7475    18.6508    61.8263 C.ar       1           0.4184
     23 N5         23.5344    19.1318    62.0333 N.ar       1          -0.5690
     24 H1         23.3799    20.0862    61.9545 H          1           0.4514
     25 C18        22.5221    18.3295    62.3473 C.ar       1           0.5620
     26 N6         21.2557    18.8381    62.5622 N.pl3      1          -0.8003
     27 C19        22.7708    16.9505    62.4485 C.ar       1          -0.3028
     28 H2         11.6677    16.1730    63.8721 H          1           0.0701
     29 H3         12.0418    14.7566    64.8831 H          1           0.0844
     30 H4         12.1791    16.3962    65.5623 H          1           0.0705
     31 H5         13.9014    15.2491    63.3185 H          1           0.0681
     32 H6         14.0386    16.8886    63.9976 H          1           0.0675
     33 H7         16.4262    14.4959    66.9321 H          1           0.1440
     34 H8         18.8292    14.4566    66.5434 H          1           0.1404
     35 H9         20.7650    14.9195    65.0491 H          1           0.1439
     36 H10        19.9337    16.6064    61.1941 H          1           0.1703
     37 H11        15.7429    16.1685    63.0592 H          1           0.1531
     38 H12        24.8933    13.2113    62.4323 H          1           0.1246
     39 H13        26.6181    13.6866    60.7151 H          1           0.0780
     40 H14        24.9893    14.0689    60.1077 H          1           0.0936
     41 H15        26.0724    15.3790    60.6356 H          1           0.0657
     42 H16        27.1450    13.9705    63.1408 H          1           0.0648
     43 H17        26.5994    15.6629    63.0614 H          1           0.0937
     44 H18        25.8918    14.5551    64.2615 H          1           0.0776
     45 H19        25.5412    19.3384    61.5738 H          1           0.2544
     46 H20        21.0965    19.7919    62.4845 H          1           0.4298
     47 H21        20.5258    18.2416    62.7907 H          1           0.4403
@<TRIPOS>BOND
     1    1    2 1
     2    1   28 1
     3    1   29 1
     4    1   30 1
     5    2    3 1
     6    2   31 1
     7    2   32 1
     8    3    4 1
     9    4   13 ar
    10    4    5 ar
    11    5    6 ar
    12    5   33 1
    13    6    7 ar
    14    6   34 1
    15    7   12 ar
    16    7    8 ar
    17    8    9 ar
    18    8   35 1
    19    9   10 ar
    20    9   14 1
    21   10   11 ar
    22   10   36 1
    23   11   12 ar
    24   12   13 ar
    25   13   37 1
    26   14   27 1
    27   14   15 2
    28   15   16 1
    29   16   17 1
    30   16   20 1
    31   17   18 1
    32   17   19 1
    33   17   38 1
    34   18   39 1
    35   18   40 1
    36   18   41 1
    37   19   42 1
    38   19   43 1
    39   19   44 1
    40   20   27 ar
    41   20   21 ar
    42   21   22 ar
    43   22   23 ar
    44   22   45 1
    45   23   24 1
    46   23   25 ar
    47   25   26 1
    48   25   27 ar
    49   26   46 1
    50   26   47 1
##########                 Name:                 1555
##########          Protonation:                  100
##########               SMILES:   CC(C)(C)n1c(c(c(n1)c2cc3ccc(cc3nc2)C(F)(F)F)C(=O)N)N
##########            Long Name:   -amino-1-tert-butyl-3-[7-(trifluoromethyl)-3-quinolyl]pyrazole-4-carboxamide
##########          FlexRecCode: 1
##########               Number:                  176
##########   Ligand Source File: /raid1/people/rgc/Examples/tdt/part3/ligand22set/build/ligand22set-0000001.db2.g
##########           GlobalRank: 17
##########                 Rank:                    1
##########               Setnum:                    4
##########             Matchnum:                35757
##########                Cloud:                    1
##########        Electrostatic:            -8.976459
##########        Van der Waals:           -29.648029
##########  Ligand Polar Desolv:             6.782985
########## Ligand Apolar Desolv:            -1.881736
##########      Internal Energy:             0.000000
##########      Receptor Energy: 0.0
########## Receptor Desolvation:             0.000000
########## Receptor Hydrophobic:             0.000000
##########         Total Energy: -33.72
##########        Ligand Charge:             0.000000
##########            Arbitrary:    +999.9990
##########     heavy atom count:   27
##########           pose count:   10
##########        Ligand Energy:             0.000000
# num electro vdwattr vdwrepu polsolv apolsol rdesolv rhydroe totalscore fullpol fullapo
#   1    1.12   -0.78    0.15   -0.22   -0.06    0.00    0.00       0.22   -0.64   -0.17
#   2   -0.92   -0.69    0.06    0.17   -0.04    0.00    0.00      -1.42    0.49   -0.12
#   3    0.69   -1.88    1.50   -0.30   -0.06    0.00    0.00      -0.06   -0.87   -0.17
#   4    1.12   -0.69    0.05   -0.13   -0.06    0.00    0.00       0.29   -0.36   -0.16
#   5    0.72   -1.43    0.42    0.04    0.37    0.00    0.00       0.12    0.09    0.94
#   6   -0.37   -1.48    0.31    0.32    0.46    0.00    0.00      -0.76    0.76    1.08
#   7    0.80   -1.67    0.55   -0.26   -0.38    0.00    0.00      -0.96   -0.54   -0.77
#   8   -0.82   -2.11    1.39    0.64   -0.24    0.00    0.00      -1.14    1.15   -0.42
#   9    2.28   -2.74    0.68   -1.42   -0.34    0.00    0.00      -1.54   -2.23   -0.53
#  10   -2.57   -5.16    3.99   -0.37    1.32    0.00    0.00      -2.80   -0.55    1.96
#  11   -2.35   -3.81    1.85    3.44    0.27    0.00    0.00      -0.60    5.22    0.41
#  12   -0.46   -2.05    1.32   -0.08   -0.91    0.00    0.00      -2.17   -0.17   -1.98
#  13    4.54   -3.05    2.92   -1.28    0.40    0.00    0.00       3.53   -2.69    0.83
#  14   -0.59   -1.72    0.26    0.13   -0.21    0.00    0.00      -2.14    0.24   -0.40
#  15    1.88   -3.29    2.21   -0.50   -0.50    0.00    0.00      -0.20   -0.92   -0.91
#  16   -6.12   -4.30    3.20    2.04    1.17    0.00    0.00      -4.01    3.43    1.98
#  17    1.90   -2.75    0.80   -0.25   -0.43    0.00    0.00      -0.73   -0.43   -0.73
#  18   -0.39   -3.20    1.40    0.13   -0.26    0.00    0.00      -2.32    0.21   -0.44
#  19   -1.91   -2.59    1.33    0.15   -0.24    0.00    0.00      -3.25    0.24   -0.38
#  20   -0.72   -2.92    1.03   -0.08   -0.28    0.00    0.00      -2.98   -0.13   -0.44
#  21   -0.61   -2.77    0.76   -0.10   -0.30    0.00    0.00      -3.02   -0.15   -0.46
#  22   -1.03   -2.20    0.55    0.08   -0.25    0.00    0.00      -2.86    0.12   -0.40
#  23   -0.27   -1.90    0.34    0.00   -0.26    0.00    0.00      -2.09    0.00   -0.45
#  24    5.20   -1.41    0.28   -0.77   -0.05    0.00    0.00       3.25   -1.18   -0.07
#  25   -1.51   -1.80    1.03    0.35   -0.31    0.00    0.00      -2.23    0.55   -0.48
#  26   -1.39   -1.39    0.49    0.18   -0.28    0.00    0.00      -2.38    0.30   -0.45
#  27   -2.02   -1.55    0.37    0.47   -0.30    0.00    0.00      -3.04    0.70   -0.45
#  28   -0.57   -0.51    0.40    0.10   -0.06    0.00    0.00      -0.64    0.34   -0.20
#  29   -0.49   -0.13    0.01    0.00   -0.04    0.00    0.00      -0.66    0.03   -0.28
#  30   -0.42   -0.25    0.03    0.24   -0.08    0.00    0.00      -0.48    0.81   -0.28
#  31   -0.10   -1.68    4.59    0.38   -0.11    0.00    0.00       3.06    0.93   -0.28
#  32   -0.16   -0.35    0.09    0.06   -0.07    0.00    0.00      -0.44    0.22   -0.28
#  33   -0.48   -0.79    1.71    0.12   -0.05    0.00    0.00       0.51    0.49   -0.20
#  34   -0.37   -0.33    0.04    0.00   -0.10    0.00    0.00      -0.76    0.00   -0.28
#  35   -0.66   -0.18    0.02    0.02   -0.04    0.00    0.00      -0.85    0.10   -0.28
#  36   -0.82   -0.16    0.01    0.10   -0.05    0.00    0.00      -0.92    0.59   -0.28
#  37    0.91   -0.10    0.01    0.92    0.39    0.00    0.00       2.13    1.40    0.59
#  38    0.54   -0.17    0.03    0.45    0.41    0.00    0.00       1.27    0.66    0.60
#  39   -2.32   -0.03    0.00    0.78    0.10    0.00    0.00      -1.46    2.47    0.32
#  40   -3.93   -0.16    0.06    0.74    0.28    0.00    0.00      -3.01    1.56    0.58
#  41    0.86   -0.86    1.01   -0.56   -0.10    0.00    0.00       0.35   -1.16   -0.21
#  42    0.75   -1.29    2.72   -0.34   -0.15    0.00    0.00       1.67   -0.60   -0.27
#  43    0.62   -0.65    0.14    0.40   -0.15    0.00    0.00       0.37    0.72   -0.27
#  44    0.33   -0.64    0.14    0.82   -0.17    0.00    0.00       0.48    1.36   -0.28
#  45    1.14   -0.51    0.23    0.21   -0.12    0.00    0.00       0.94    0.49   -0.28

@<TRIPOS>MOLECULE
             1555       100
   45    47     0     0     0



@<TRIPOS>ATOM
      1 C1         24.6627    16.1454    61.1222 C.3        1          -0.1675
      2 C2         24.0936    16.5833    62.4733 C.3        1           0.1773
      3 C3         25.1408    16.3564    63.5655 C.3        1          -0.1655
      4 C4         23.7298    18.0683    62.4162 C.3        1          -0.1412
      5 N1         22.8945    15.7980    62.7757 N.pl3      1          -0.3769
      6 N2         21.6160    16.3256    62.9742 N.2        1          -0.2711
      7 C5         20.7754    15.3495    63.2244 C.2        1           0.1726
      8 C6         21.5425    14.0988    63.1899 C.2        1          -0.3623
      9 C7         21.0275    12.7439    63.4109 C.2        1           0.6083
     10 N3         20.5716    12.0183    62.3706 N.am       1          -0.8472
     11 O1         21.0118    12.2745    64.5336 O.2        1          -0.5371
     12 C8         22.8561    14.4567    62.8990 C.2        1           0.4198
     13 N4         23.9252    13.5946    62.7640 N.pl3      1          -0.8428
     14 C9         19.3237    15.4850    63.4926 C.ar       1          -0.0570
     15 C10        18.4760    16.0537    62.5277 C.ar       1           0.1622
     16 N5         17.1911    16.1853    62.7370 N.ar       1          -0.4587
     17 C11        16.6208    15.7853    63.8790 C.ar       1           0.1258
     18 C12        15.2383    15.9348    64.0852 C.ar       1          -0.0303
     19 C13        14.6802    15.5200    65.2553 C.ar       1          -0.1587
     20 C14        15.4574    14.9465    66.2597 C.ar       1          -0.0871
     21 C15        16.7993    14.7849    66.0973 C.ar       1          -0.0822
     22 C16        17.4094    15.2017    64.9019 C.ar       1          -0.0845
     23 C17        18.7914    15.0458    64.6960 C.ar       1          -0.0264
     24 C18        13.1974    15.6843    65.4682 C.3        1           0.5086
     25 F1         12.6268    16.2779    64.3372 F          1          -0.1731
     26 F2         12.6150    14.4301    65.6807 F          1          -0.1736
     27 F3         12.9738    16.4974    66.5846 F          1          -0.1735
     28 H1         23.9167    16.3071    60.3441 H          1           0.0613
     29 H2         25.5549    16.7297    60.8972 H          1           0.0713
     30 H3         24.9220    15.0875    61.1628 H          1           0.0857
     31 H4         24.7354    16.6684    64.5279 H          1           0.0857
     32 H5         25.4000    15.2985    63.6061 H          1           0.0705
     33 H6         26.0330    16.9408    63.3404 H          1           0.0610
     34 H7         23.3244    18.3804    63.3787 H          1           0.0712
     35 H8         24.6221    18.6526    62.1912 H          1           0.0706
     36 H9         22.9839    18.2301    61.6380 H          1           0.0747
     37 H10        20.5843    12.3924    61.4758 H          1           0.4019
     38 H11        20.2311    11.1219    62.5168 H          1           0.4024
     39 H12        24.8071    13.9437    62.5611 H          1           0.4048
     40 H13        23.7947    12.6395    62.8720 H          1           0.4181
     41 H14        18.8947    16.3906    61.5909 H          1           0.1722
     42 H15        14.6210    16.3775    63.3176 H          1           0.1521
     43 H16        14.9892    14.6264    67.1787 H          1           0.1427
     44 H17        17.3918    14.3396    66.8829 H          1           0.1449
     45 H18        19.4201    14.6013    65.4534 H          1           0.1512
@<TRIPOS>BOND
     1    1    2 1
     2    1   28 1
     3    1   29 1
     4    1   30 1
     5    2    3 1
     6    2    4 1
     7    2    5 1
     8    3   31 1
     9    3   32 1
    10    3   33 1
    11    4   34 1
    12    4   35 1
    13    4   36 1
    14    5   12 1
    15    5    6 1
    16    6    7 2
    17    7    8 1
    18    7   14 1
    19    8    9 1
    20    8   12 2
    21    9   10 am
    22    9   11 2
    23   10   37 1
    24   10   38 1
    25   12   13 1
    26   13   39 1
    27   13   40 1
    28   14   23 ar
    29   14   15 ar
    30   15   16 ar
    31   15   41 1
    32   16   17 ar
    33   17   22 ar
    34   17   18 ar
    35   18   19 ar
    36   18   42 1
    37   19   20 ar
    38   19   24 1
    39   20   21 ar
    40   20   43 1
    41   21   22 ar
    42   21   44 1
    43   22   23 ar
    44   23   45 1
    45   24   25 1
    46   24   26 1
    47   24   27 1
##########                 Name:                 1555
##########          Protonation:                  100
##########               SMILES:   CC(C)(C)n1c(c(c(n1)c2cc3ccc(cc3nc2)C(F)(F)F)C(=O)N)N
##########            Long Name:   -amino-1-tert-butyl-3-[7-(trifluoromethyl)-3-quinolyl]pyrazole-4-carboxamide
##########          FlexRecCode: 1
##########               Number:                  176
##########   Ligand Source File: /raid1/people/rgc/Examples/tdt/part3/ligand22set/build/ligand22set-0000001.db2.g
##########           GlobalRank: 19
##########                 Rank:                    2
##########               Setnum:                   10
##########             Matchnum:                35757
##########                Cloud:                    1
##########        Electrostatic:            -7.988204
##########        Van der Waals:           -29.448606
##########  Ligand Polar Desolv:             6.694546
########## Ligand Apolar Desolv:            -1.974507
##########      Internal Energy:             0.000000
##########      Receptor Energy: 0.0
########## Receptor Desolvation:             0.000000
########## Receptor Hydrophobic:             0.000000
##########         Total Energy: -32.72
##########        Ligand Charge:             0.000000
##########            Arbitrary:    +999.9990
##########     heavy atom count:   27
##########           pose count:   10
##########        Ligand Energy:             0.000000
# num electro vdwattr vdwrepu polsolv apolsol rdesolv rhydroe totalscore fullpol fullapo
#   1    1.12   -0.78    0.15   -0.22   -0.06    0.00    0.00       0.22   -0.64   -0.17
#   2   -0.92   -0.69    0.06    0.17   -0.04    0.00    0.00      -1.42    0.49   -0.12
#   3    0.69   -1.88    1.50   -0.30   -0.06    0.00    0.00      -0.06   -0.87   -0.17
#   4    1.12   -0.69    0.05   -0.13   -0.06    0.00    0.00       0.29   -0.36   -0.16
#   5    0.72   -1.43    0.42    0.04    0.37    0.00    0.00       0.12    0.09    0.94
#   6   -0.37   -1.48    0.31    0.32    0.46    0.00    0.00      -0.76    0.76    1.08
#   7    0.80   -1.67    0.55   -0.26   -0.38    0.00    0.00      -0.96   -0.54   -0.77
#   8   -0.82   -2.11    1.39    0.64   -0.24    0.00    0.00      -1.14    1.15   -0.42
#   9    2.28   -2.74    0.68   -1.42   -0.34    0.00    0.00      -1.54   -2.23   -0.53
#  10   -3.71   -4.92    4.08   -0.36    1.29    0.00    0.00      -3.62   -0.55    1.96
#  11   -1.68   -4.06    1.96    3.49    0.27    0.00    0.00      -0.01    5.22    0.41
#  12   -0.46   -2.05    1.32   -0.08   -0.91    0.00    0.00      -2.17   -0.17   -1.98
#  13    4.54   -3.05    2.92   -1.28    0.40    0.00    0.00       3.53   -2.69    0.83
#  14   -0.59   -1.72    0.26    0.13   -0.21    0.00    0.00      -2.14    0.24   -0.40
#  15    1.88   -3.29    2.21   -0.50   -0.50    0.00    0.00      -0.20   -0.92   -0.91
#  16   -6.12   -4.30    3.20    2.04    1.17    0.00    0.00      -4.01    3.43    1.98
#  17    1.90   -2.75    0.80   -0.25   -0.43    0.00    0.00      -0.73   -0.43   -0.73
#  18   -0.39   -3.20    1.40    0.13   -0.26    0.00    0.00      -2.32    0.21   -0.44
#  19   -1.91   -2.59    1.33    0.15   -0.24    0.00    0.00      -3.25    0.24   -0.38
#  20   -0.72   -2.92    1.03   -0.08   -0.28    0.00    0.00      -2.98   -0.13   -0.44
#  21   -0.61   -2.77    0.76   -0.10   -0.30    0.00    0.00      -3.02   -0.15   -0.46
#  22   -1.03   -2.20    0.55    0.08   -0.25    0.00    0.00      -2.86    0.12   -0.40
#  23   -0.27   -1.90    0.34    0.00   -0.26    0.00    0.00      -2.09    0.00   -0.45
#  24    5.20   -1.41    0.28   -0.77   -0.05    0.00    0.00       3.25   -1.18   -0.07
#  25   -1.51   -1.80    1.03    0.35   -0.31    0.00    0.00      -2.23    0.55   -0.48
#  26   -1.39   -1.39    0.49    0.18   -0.28    0.00    0.00      -2.38    0.30   -0.45
#  27   -2.02   -1.55    0.37    0.47   -0.30    0.00    0.00      -3.04    0.70   -0.45
#  28   -0.57   -0.51    0.40    0.10   -0.06    0.00    0.00      -0.64    0.34   -0.20
#  29   -0.49   -0.13    0.01    0.00   -0.04    0.00    0.00      -0.66    0.03   -0.28
#  30   -0.42   -0.25    0.03    0.24   -0.08    0.00    0.00      -0.48    0.81   -0.28
#  31   -0.10   -1.68    4.59    0.38   -0.11    0.00    0.00       3.06    0.93   -0.28
#  32   -0.16   -0.35    0.09    0.06   -0.07    0.00    0.00      -0.44    0.22   -0.28
#  33   -0.48   -0.79    1.71    0.12   -0.05    0.00    0.00       0.51    0.49   -0.20
#  34   -0.37   -0.33    0.04    0.00   -0.10    0.00    0.00      -0.76    0.00   -0.28
#  35   -0.66   -0.18    0.02    0.02   -0.04    0.00    0.00      -0.85    0.10   -0.28
#  36   -0.82   -0.16    0.01    0.10   -0.05    0.00    0.00      -0.92    0.59   -0.28
#  37    2.20   -0.11    0.02    0.79    0.33    0.00    0.00       3.24    1.40    0.59
#  38    0.71   -0.15    0.02    0.43    0.39    0.00    0.00       1.41    0.66    0.60
#  39   -2.32   -0.03    0.00    0.78    0.10    0.00    0.00      -1.46    2.47    0.32
#  40   -3.93   -0.16    0.06    0.74    0.28    0.00    0.00      -3.01    1.56    0.58
#  41    0.86   -0.86    1.01   -0.56   -0.10    0.00    0.00       0.35   -1.16   -0.21
#  42    0.75   -1.29    2.72   -0.34   -0.15    0.00    0.00       1.67   -0.60   -0.27
#  43    0.62   -0.65    0.14    0.40   -0.15    0.00    0.00       0.37    0.72   -0.27
#  44    0.33   -0.64    0.14    0.82   -0.17    0.00    0.00       0.48    1.36   -0.28
#  45    1.14   -0.51    0.23    0.21   -0.12    0.00    0.00       0.94    0.49   -0.28

@<TRIPOS>MOLECULE
             1555       100
   45    47     0     0     0



@<TRIPOS>ATOM
      1 C1         24.6627    16.1454    61.1222 C.3        1          -0.1675
      2 C2         24.0936    16.5833    62.4733 C.3        1           0.1773
      3 C3         25.1408    16.3564    63.5655 C.3        1          -0.1655
      4 C4         23.7298    18.0683    62.4162 C.3        1          -0.1412
      5 N1         22.8945    15.7980    62.7757 N.pl3      1          -0.3769
      6 N2         21.6160    16.3256    62.9742 N.2        1          -0.2711
      7 C5         20.7754    15.3495    63.2244 C.2        1           0.1726
      8 C6         21.5425    14.0988    63.1899 C.2        1          -0.3623
      9 C7         21.0275    12.7439    63.4109 C.2        1           0.6083
     10 N3         21.0101    12.2241    64.6544 N.am       1          -0.8472
     11 O1         20.6159    12.0886    62.4717 O.2        1          -0.5371
     12 C8         22.8561    14.4567    62.8990 C.2        1           0.4198
     13 N4         23.9252    13.5946    62.7640 N.pl3      1          -0.8428
     14 C9         19.3237    15.4850    63.4926 C.ar       1          -0.0570
     15 C10        18.4760    16.0537    62.5277 C.ar       1           0.1622
     16 N5         17.1911    16.1853    62.7370 N.ar       1          -0.4587
     17 C11        16.6208    15.7853    63.8790 C.ar       1           0.1258
     18 C12        15.2383    15.9348    64.0852 C.ar       1          -0.0303
     19 C13        14.6802    15.5200    65.2553 C.ar       1          -0.1587
     20 C14        15.4574    14.9465    66.2597 C.ar       1          -0.0871
     21 C15        16.7993    14.7849    66.0973 C.ar       1          -0.0822
     22 C16        17.4094    15.2017    64.9019 C.ar       1          -0.0845
     23 C17        18.7914    15.0458    64.6960 C.ar       1          -0.0264
     24 C18        13.1974    15.6843    65.4682 C.3        1           0.5086
     25 F1         12.6268    16.2779    64.3372 F          1          -0.1731
     26 F2         12.6150    14.4301    65.6807 F          1          -0.1736
     27 F3         12.9738    16.4974    66.5846 F          1          -0.1735
     28 H1         23.9167    16.3071    60.3441 H          1           0.0613
     29 H2         25.5549    16.7297    60.8972 H          1           0.0713
     30 H3         24.9220    15.0875    61.1628 H          1           0.0857
     31 H4         24.7354    16.6684    64.5279 H          1           0.0857
     32 H5         25.4000    15.2985    63.6061 H          1           0.0705
     33 H6         26.0330    16.9408    63.3404 H          1           0.0610
     34 H7         23.3244    18.3804    63.3787 H          1           0.0712
     35 H8         24.6221    18.6526    62.1912 H          1           0.0706
     36 H9         22.9839    18.2301    61.6380 H          1           0.0747
     37 H10        21.3381    12.7464    65.4030 H          1           0.4019
     38 H11        20.6694    11.3278    64.8006 H          1           0.4024
     39 H12        24.8071    13.9437    62.5611 H          1           0.4048
     40 H13        23.7947    12.6395    62.8720 H          1           0.4181
     41 H14        18.8947    16.3906    61.5909 H          1           0.1722
     42 H15        14.6210    16.3775    63.3176 H          1           0.1521
     43 H16        14.9892    14.6264    67.1787 H          1           0.1427
     44 H17        17.3918    14.3396    66.8829 H          1           0.1449
     45 H18        19.4201    14.6013    65.4534 H          1           0.1512
@<TRIPOS>BOND
     1    1    2 1
     2    1   28 1
     3    1   29 1
     4    1   30 1
     5    2    3 1
     6    2    4 1
     7    2    5 1
     8    3   31 1
     9    3   32 1
    10    3   33 1
    11    4   34 1
    12    4   35 1
    13    4   36 1
    14    5   12 1
    15    5    6 1
    16    6    7 2
    17    7    8 1
    18    7   14 1
    19    8    9 1
    20    8   12 2
    21    9   10 am
    22    9   11 2
    23   10   37 1
    24   10   38 1
    25   12   13 1
    26   13   39 1
    27   13   40 1
    28   14   23 ar
    29   14   15 ar
    30   15   16 ar
    31   15   41 1
    32   16   17 ar
    33   17   22 ar
    34   17   18 ar
    35   18   19 ar
    36   18   42 1
    37   19   20 ar
    38   19   24 1
    39   20   21 ar
    40   20   43 1
    41   21   22 ar
    42   21   44 1
    43   22   23 ar
    44   23   45 1
    45   24   25 1
    46   24   26 1
    47   24   27 1
##########                 Name:                 1555
##########          Protonation:                  100
##########               SMILES:   CC(C)(C)n1c(c(c(n1)c2cc3ccc(cc3nc2)C(F)(F)F)C(=O)N)N
##########            Long Name:   -amino-1-tert-butyl-3-[7-(trifluoromethyl)-3-quinolyl]pyrazole-4-carboxamide
##########          FlexRecCode: 1
##########               Number:                  177
##########   Ligand Source File: /raid1/people/rgc/Examples/tdt/part3/ligand22set/build/ligand22set-0000001.db2.g
##########           GlobalRank: 20
##########                 Rank:                    1
##########               Setnum:                    6
##########             Matchnum:                33013
##########                Cloud:                    1
##########        Electrostatic:            -7.219205
##########        Van der Waals:           -29.202816
##########  Ligand Polar Desolv:             6.573094
########## Ligand Apolar Desolv:            -1.938051
##########      Internal Energy:             0.000000
##########      Receptor Energy: 0.0
########## Receptor Desolvation:             0.000000
########## Receptor Hydrophobic:             0.000000
##########         Total Energy: -31.79
##########        Ligand Charge:             0.000000
##########            Arbitrary:    +999.9990
##########     heavy atom count:   27
##########           pose count:   10
##########        Ligand Energy:             0.000000
# num electro vdwattr vdwrepu polsolv apolsol rdesolv rhydroe totalscore fullpol fullapo
#   1    1.48   -0.99    0.37   -0.22   -0.06    0.00    0.00       0.57   -0.64   -0.17
#   2   -1.08   -0.65    0.05    0.17   -0.04    0.00    0.00      -1.55    0.49   -0.12
#   3    1.00   -1.49    1.11   -0.28   -0.05    0.00    0.00       0.29   -0.87   -0.17
#   4    1.24   -0.70    0.04   -0.14   -0.06    0.00    0.00       0.37   -0.36   -0.16
#   5    0.67   -1.35    0.29    0.04    0.37    0.00    0.00       0.02    0.09    0.94
#   6   -0.77   -1.57    0.28    0.33    0.47    0.00    0.00      -1.26    0.76    1.08
#   7    0.92   -1.68    0.38   -0.27   -0.38    0.00    0.00      -1.03   -0.54   -0.77
#   8   -0.88   -1.84    0.50    0.63   -0.23    0.00    0.00      -1.82    1.15   -0.42
#   9    2.68   -2.96    0.86   -1.40   -0.33    0.00    0.00      -1.15   -2.23   -0.53
#  10   -4.16   -5.23    3.88   -0.37    1.31    0.00    0.00      -4.56   -0.55    1.96
#  11   -3.25   -5.28    4.98    3.31    0.26    0.00    0.00       0.03    5.22    0.41
#  12   -0.47   -1.80    0.81   -0.08   -0.88    0.00    0.00      -2.42   -0.17   -1.98
#  13    4.07   -2.12    0.88   -1.21    0.37    0.00    0.00       2.00   -2.69    0.83
#  14   -0.55   -1.83    0.41    0.13   -0.22    0.00    0.00      -2.06    0.24   -0.40
#  15    1.29   -3.34    3.07   -0.53   -0.52    0.00    0.00      -0.03   -0.92   -0.91
#  16   -3.18   -2.76    0.63    2.15    1.24    0.00    0.00      -1.91    3.43    1.98
#  17    1.33   -2.39    0.60   -0.28   -0.47    0.00    0.00      -1.22   -0.43   -0.73
#  18   -0.27   -2.86    1.05    0.14   -0.29    0.00    0.00      -2.23    0.21   -0.44
#  19   -1.81   -2.74    1.90    0.15   -0.24    0.00    0.00      -2.74    0.24   -0.38
#  20   -1.00   -3.31    1.71   -0.08   -0.26    0.00    0.00      -2.94   -0.13   -0.44
#  21   -1.06   -3.64    1.60   -0.09   -0.28    0.00    0.00      -3.47   -0.15   -0.46
#  22   -1.22   -2.38    0.64    0.07   -0.24    0.00    0.00      -3.12    0.12   -0.40
#  23   -0.36   -2.05    0.43    0.00   -0.25    0.00    0.00      -2.23    0.00   -0.45
#  24    4.83   -1.52    0.36   -0.77   -0.05    0.00    0.00       2.85   -1.18   -0.07
#  25   -1.28   -2.48    2.23    0.36   -0.32    0.00    0.00      -1.48    0.55   -0.48
#  26   -1.93   -1.49    0.48    0.20   -0.30    0.00    0.00      -3.04    0.30   -0.45
#  27   -1.42   -1.39    0.75    0.43   -0.28    0.00    0.00      -1.91    0.70   -0.45
#  28   -0.69   -0.71    0.91    0.11   -0.07    0.00    0.00      -0.45    0.34   -0.20
#  29   -0.77   -0.18    0.02    0.01   -0.06    0.00    0.00      -0.99    0.03   -0.28
#  30   -0.52   -0.32    0.10    0.25   -0.09    0.00    0.00      -0.58    0.81   -0.28
#  31   -0.44   -1.45    3.36    0.35   -0.11    0.00    0.00       1.72    0.93   -0.28
#  32   -0.29   -0.27    0.05    0.05   -0.06    0.00    0.00      -0.52    0.22   -0.28
#  33   -0.51   -0.41    0.38    0.09   -0.04    0.00    0.00      -0.48    0.49   -0.20
#  34   -0.39   -0.35    0.04    0.00   -0.10    0.00    0.00      -0.81    0.00   -0.28
#  35   -0.82   -0.17    0.01    0.02   -0.04    0.00    0.00      -1.00    0.10   -0.28
#  36   -0.80   -0.18    0.01    0.13   -0.06    0.00    0.00      -0.91    0.59   -0.28
#  37    1.11   -0.07    0.00    0.88    0.37    0.00    0.00       2.29    1.40    0.59
#  38    2.27   -0.18    0.03    0.44    0.40    0.00    0.00       2.97    0.66    0.60
#  39   -1.94   -0.02    0.00    0.69    0.09    0.00    0.00      -1.18    2.47    0.32
#  40   -3.90   -0.09    0.02    0.66    0.24    0.00    0.00      -3.07    1.56    0.58
#  41    1.25   -1.50    4.33   -0.60   -0.11    0.00    0.00       3.37   -1.16   -0.21
#  42    0.54   -0.63    0.12   -0.35   -0.16    0.00    0.00      -0.46   -0.60   -0.27
#  43    1.02   -0.88    0.64    0.38   -0.14    0.00    0.00       1.03    0.72   -0.27
#  44    1.11   -1.31    1.37    0.85   -0.17    0.00    0.00       1.85    1.36   -0.28
#  45    1.72   -0.52    0.18    0.22   -0.13    0.00    0.00       1.48    0.49   -0.28

@<TRIPOS>MOLECULE
             1555       100
   45    47     0     0     0



@<TRIPOS>ATOM
      1 C1         24.0968    16.6041    60.8591 C.3        1          -0.1675
      2 C2         23.7657    16.9930    62.3014 C.3        1           0.1773
      3 C3         25.0412    16.9555    63.1455 C.3        1          -0.1655
      4 C4         23.1787    18.4057    62.3267 C.3        1          -0.1412
      5 N1         22.7892    16.0486    62.8498 N.pl3      1          -0.3769
      6 N2         21.5166    16.3874    63.3169 N.2        1          -0.2711
      7 C5         20.9041    15.3058    63.7376 C.2        1           0.1726
      8 C6         21.8261    14.1814    63.5377 C.2        1          -0.3623
      9 C7         21.5790    12.7726    63.8597 C.2        1           0.6083
     10 N3         21.0289    11.9572    62.9382 N.am       1          -0.8472
     11 O1         21.8707    12.3394    64.9588 O.2        1          -0.5371
     12 C8         22.9798    14.7205    62.9751 C.2        1           0.4198
     13 N4         24.1138    14.0220    62.6138 N.pl3      1          -0.8428
     14 C9         19.5379    15.2334    64.3085 C.ar       1          -0.0570
     15 C10        19.3413    14.7557    65.6147 C.ar       1           0.1622
     16 N5         18.1471    14.6812    66.1441 N.ar       1          -0.4587
     17 C11        17.0547    15.0557    65.4691 C.ar       1           0.1258
     18 C12        15.7800    14.9687    66.0554 C.ar       1          -0.0303
     19 C13        14.6828    15.3561    65.3492 C.ar       1          -0.1587
     20 C14        14.7989    15.8405    64.0478 C.ar       1          -0.0871
     21 C15        16.0160    15.9396    63.4460 C.ar       1          -0.0822
     22 C16        17.1704    15.5487    64.1453 C.ar       1          -0.0845
     23 C17        18.4446    15.6422    63.5587 C.ar       1          -0.0264
     24 C18        13.3200    15.2591    65.9851 C.3        1           0.5086
     25 F1         13.4458    14.7500    67.2820 F          1          -0.1731
     26 F2         12.7384    16.5304    66.0376 F          1          -0.1736
     27 F3         12.5107    14.4070    65.2261 F          1          -0.1735
     28 H1         23.1880    16.6309    60.2578 H          1           0.0613
     29 H2         24.8234    17.3067    60.4512 H          1           0.0713
     30 H3         24.5149    15.5976    60.8411 H          1           0.0857
     31 H4         24.8052    17.2325    64.1729 H          1           0.0857
     32 H5         25.4593    15.9490    63.1276 H          1           0.0705
     33 H6         25.7677    17.6581    62.7374 H          1           0.0610
     34 H7         22.9427    18.6828    63.3541 H          1           0.0712
     35 H8         23.9053    19.1083    61.9187 H          1           0.0706
     36 H9         22.2700    18.4325    61.7253 H          1           0.0747
     37 H10        20.7965    12.3025    62.0620 H          1           0.4019
     38 H11        20.8655    11.0251    63.1512 H          1           0.4024
     39 H12        24.8705    14.4913    62.2290 H          1           0.4048
     40 H13        24.1542    13.0618    62.7446 H          1           0.4181
     41 H14        20.1961    14.4421    66.1955 H          1           0.1722
     42 H15        15.6716    14.5953    67.0630 H          1           0.1521
     43 H16        13.9120    16.1406    63.5096 H          1           0.1427
     44 H17        16.0937    16.3161    62.4367 H          1           0.1449
     45 H18        18.5682    16.0173    62.5534 H          1           0.1512
@<TRIPOS>BOND
     1    1    2 1
     2    1   28 1
     3    1   29 1
     4    1   30 1
     5    2    3 1
     6    2    4 1
     7    2    5 1
     8    3   31 1
     9    3   32 1
    10    3   33 1
    11    4   34 1
    12    4   35 1
    13    4   36 1
    14    5   12 1
    15    5    6 1
    16    6    7 2
    17    7    8 1
    18    7   14 1
    19    8    9 1
    20    8   12 2
    21    9   10 am
    22    9   11 2
    23   10   37 1
    24   10   38 1
    25   12   13 1
    26   13   39 1
    27   13   40 1
    28   14   23 ar
    29   14   15 ar
    30   15   16 ar
    31   15   41 1
    32   16   17 ar
    33   17   22 ar
    34   17   18 ar
    35   18   19 ar
    36   18   42 1
    37   19   20 ar
    38   19   24 1
    39   20   21 ar
    40   20   43 1
    41   21   22 ar
    42   21   44 1
    43   22   23 ar
    44   23   45 1
    45   24   25 1
    46   24   26 1
    47   24   27 1
##########                 Name:                 1555
##########          Protonation:                  100
##########               SMILES:   CC(C)(C)n1c(c(c(n1)c2cc3ccc(cc3nc2)C(F)(F)F)C(=O)N)N
##########            Long Name:   -amino-1-tert-butyl-3-[7-(trifluoromethyl)-3-quinolyl]pyrazole-4-carboxamide
##########          FlexRecCode: 1
##########               Number:                  177
##########   Ligand Source File: /raid1/people/rgc/Examples/tdt/part3/ligand22set/build/ligand22set-0000001.db2.g
##########           GlobalRank: 20
##########                 Rank:                    2
##########               Setnum:                    4
##########             Matchnum:                 2456
##########                Cloud:                    1
##########        Electrostatic:            -8.066380
##########        Van der Waals:           -24.901814
##########  Ligand Polar Desolv:             6.882508
########## Ligand Apolar Desolv:            -2.064528
##########      Internal Energy:             0.000000
##########      Receptor Energy: 0.0
########## Receptor Desolvation:             0.000000
########## Receptor Hydrophobic:             0.000000
##########         Total Energy: -28.15
##########        Ligand Charge:             0.000000
##########            Arbitrary:    +999.9990
##########     heavy atom count:   27
##########           pose count:   10
##########        Ligand Energy:             0.000000
# num electro vdwattr vdwrepu polsolv apolsol rdesolv rhydroe totalscore fullpol fullapo
#   1    1.48   -1.49    1.27   -0.23   -0.06    0.00    0.00       0.96   -0.64   -0.17
#   2   -1.02   -0.72    0.10    0.18   -0.04    0.00    0.00      -1.50    0.49   -0.12
#   3    0.77   -1.10    0.31   -0.31   -0.06    0.00    0.00      -0.40   -0.87   -0.17
#   4    1.32   -0.70    0.04   -0.15   -0.07    0.00    0.00       0.45   -0.36   -0.16
#   5    0.34   -1.64    0.85    0.04    0.38    0.00    0.00      -0.04    0.09    0.94
#   6   -1.32   -1.70    0.38    0.34    0.48    0.00    0.00      -1.81    0.76    1.08
#   7    1.27   -1.62    0.29   -0.27   -0.39    0.00    0.00      -0.71   -0.54   -0.77
#   8   -1.26   -1.88    0.88    0.66   -0.24    0.00    0.00      -1.84    1.15   -0.42
#   9    2.11   -2.41    0.44   -1.42   -0.34    0.00    0.00      -1.62   -2.23   -0.53
#  10   -1.98   -4.31    2.29   -0.37    1.32    0.00    0.00      -3.05   -0.55    1.96
#  11   -2.00   -3.86    3.45    3.41    0.27    0.00    0.00       1.28    5.22    0.41
#  12    0.05   -2.40    3.35   -0.08   -0.91    0.00    0.00       0.01   -0.17   -1.98
#  13    2.65   -2.46    1.46   -1.27    0.39    0.00    0.00       0.77   -2.69    0.83
#  14   -0.70   -1.87    0.31    0.13   -0.22    0.00    0.00      -2.35    0.24   -0.40
#  15    2.14   -3.57    2.40   -0.53   -0.53    0.00    0.00      -0.09   -0.92   -0.91
#  16   -5.96   -3.77    1.60    2.06    1.19    0.00    0.00      -4.88    3.43    1.98
#  17    1.75   -2.84    1.30   -0.25   -0.43    0.00    0.00      -0.48   -0.43   -0.73
#  18   -0.37   -2.82    1.82    0.13   -0.27    0.00    0.00      -1.51    0.21   -0.44
#  19   -1.58   -2.54    0.95    0.16   -0.25    0.00    0.00      -3.26    0.24   -0.38
#  20   -0.50   -3.40    1.06   -0.08   -0.28    0.00    0.00      -3.21   -0.13   -0.44
#  21   -0.44   -3.17    0.91   -0.10   -0.30    0.00    0.00      -3.10   -0.15   -0.46
#  22   -0.95   -2.41    0.67    0.08   -0.26    0.00    0.00      -2.87    0.12   -0.40
#  23   -0.28   -2.02    0.35    0.00   -0.27    0.00    0.00      -2.22    0.00   -0.45
#  24    4.58   -1.79    0.60   -0.77   -0.05    0.00    0.00       2.57   -1.18   -0.07
#  25   -1.48   -1.21    0.26    0.37   -0.32    0.00    0.00      -2.38    0.55   -0.48
#  26   -1.22   -2.51    2.07    0.19   -0.28    0.00    0.00      -1.75    0.30   -0.45
#  27   -1.79   -3.98    7.74    0.47   -0.30    0.00    0.00       2.13    0.70   -0.45
#  28   -0.70   -1.22    3.18    0.13   -0.07    0.00    0.00       1.30    0.34   -0.20
#  29   -0.79   -0.22    0.03    0.01   -0.07    0.00    0.00      -1.03    0.03   -0.28
#  30   -0.53   -0.53    0.48    0.27   -0.09    0.00    0.00      -0.39    0.81   -0.28
#  31   -0.18   -0.68    0.39    0.35   -0.11    0.00    0.00      -0.23    0.93   -0.28
#  32   -0.23   -0.27    0.04    0.05   -0.07    0.00    0.00      -0.47    0.22   -0.28
#  33   -0.46   -0.33    0.17    0.10   -0.04    0.00    0.00      -0.57    0.49   -0.20
#  34   -0.43   -0.32    0.03    0.00   -0.10    0.00    0.00      -0.81    0.00   -0.28
#  35   -0.89   -0.16    0.01    0.02   -0.04    0.00    0.00      -1.08    0.10   -0.28
#  36   -0.89   -0.20    0.01    0.14   -0.07    0.00    0.00      -1.01    0.59   -0.28
#  37    1.10   -0.07    0.00    0.90    0.38    0.00    0.00       2.32    1.40    0.59
#  38   -0.35   -0.12    0.01    0.46    0.42    0.00    0.00       0.41    0.66    0.60
#  39   -1.89   -0.02    0.00    0.75    0.10    0.00    0.00      -1.07    2.47    0.32
#  40   -1.86   -0.06    0.00    0.72    0.27    0.00    0.00      -0.93    1.56    0.58
#  41    1.46   -1.48    5.01   -0.63   -0.11    0.00    0.00       4.25   -1.16   -0.21
#  42    1.47   -0.56    0.17   -0.30   -0.13    0.00    0.00       0.64   -0.60   -0.27
#  43    0.16   -1.15    0.93    0.45   -0.17    0.00    0.00       0.22    0.72   -0.27
#  44    0.14   -0.78    0.19    0.86   -0.18    0.00    0.00       0.23    1.36   -0.28
#  45    1.19   -0.51    0.19    0.23   -0.13    0.00    0.00       0.97    0.49   -0.28

@<TRIPOS>MOLECULE
             1555       100
   45    47     0     0     0



@<TRIPOS>ATOM
      1 C1         23.6480    16.4651    60.7919 C.3        1          -0.1675
      2 C2         23.1781    16.9316    62.1713 C.3        1           0.1773
      3 C3         24.3457    16.8637    63.1577 C.3        1          -0.1655
      4 C4         22.6729    18.3727    62.0775 C.3        1          -0.1412
      5 N1         22.0941    16.0633    62.6373 N.pl3      1          -0.3769
      6 N2         20.7979    16.4874    62.9418 N.2        1          -0.2711
      7 C5         20.0817    15.4580    63.3279 C.2        1           0.1726
      8 C6         20.9553    14.2797    63.2766 C.2        1          -0.3623
      9 C7         20.5941    12.9005    63.6188 C.2        1           0.6083
     10 N3         20.1067    12.0765    62.6701 N.am       1          -0.8472
     11 O1         20.7346    12.4998    64.7592 O.2        1          -0.5371
     12 C8         22.1939    14.7337    62.8317 C.2        1           0.4198
     13 N4         23.3202    13.9624    62.6292 N.pl3      1          -0.8428
     14 C9         18.6577    15.4810    63.7396 C.ar       1          -0.0570
     15 C10        17.6684    15.9139    62.8413 C.ar       1           0.1622
     16 N5         16.4042    15.9443    63.1774 N.ar       1          -0.4587
     17 C11        15.9907    15.5651    64.3917 C.ar       1           0.1258
     18 C12        14.6278    15.6043    64.7339 C.ar       1          -0.0303
     19 C13        14.2307    15.2131    65.9756 C.ar       1          -0.1587
     20 C14        15.1545    14.7715    66.9206 C.ar       1          -0.0871
     21 C15        16.4828    14.7193    66.6268 C.ar       1          -0.0822
     22 C16        16.9287    15.1155    65.3546 C.ar       1          -0.0845
     23 C17        18.2917    15.0698    65.0130 C.ar       1          -0.0264
     24 C18        12.7677    15.2588    66.3342 C.3        1           0.5086
     25 F1         12.0340    15.7309    65.2407 F          1          -0.1731
     26 F2         12.3295    13.9733    66.6698 F          1          -0.1736
     27 F3         12.5814    16.1145    67.4252 F          1          -0.1735
     28 H1         22.8161    16.5136    60.0892 H          1           0.0613
     29 H2         24.4545    17.1111    60.4453 H          1           0.0713
     30 H3         24.0080    15.4385    60.8587 H          1           0.0857
     31 H4         24.0110    17.1959    64.1404 H          1           0.0857
     32 H5         24.7056    15.8370    63.2246 H          1           0.0705
     33 H6         25.1523    17.5096    62.8110 H          1           0.0610
     34 H7         22.3382    18.7051    63.0601 H          1           0.0712
     35 H8         23.4796    19.0186    61.7308 H          1           0.0706
     36 H9         21.8412    18.4212    61.3747 H          1           0.0747
     37 H10        19.9949    12.3958    61.7611 H          1           0.4019
     38 H11        19.8679    11.1640    62.8965 H          1           0.4024
     39 H12        24.1409    14.3750    62.3175 H          1           0.4048
     40 H13        23.2912    13.0078    62.7985 H          1           0.4181
     41 H14        17.9582    16.2295    61.8500 H          1           0.1722
     42 H15        13.8982    15.9441    64.0138 H          1           0.1521
     43 H16        14.8125    14.4673    67.8988 H          1           0.1427
     44 H17        17.1897    14.3756    67.3675 H          1           0.1449
     45 H18        19.0317    14.7285    65.7217 H          1           0.1512
@<TRIPOS>BOND
     1    1    2 1
     2    1   28 1
     3    1   29 1
     4    1   30 1
     5    2    3 1
     6    2    4 1
     7    2    5 1
     8    3   31 1
     9    3   32 1
    10    3   33 1
    11    4   34 1
    12    4   35 1
    13    4   36 1
    14    5   12 1
    15    5    6 1
    16    6    7 2
    17    7    8 1
    18    7   14 1
    19    8    9 1
    20    8   12 2
    21    9   10 am
    22    9   11 2
    23   10   37 1
    24   10   38 1
    25   12   13 1
    26   13   39 1
    27   13   40 1
    28   14   23 ar
    29   14   15 ar
    30   15   16 ar
    31   15   41 1
    32   16   17 ar
    33   17   22 ar
    34   17   18 ar
    35   18   19 ar
    36   18   42 1
    37   19   20 ar
    38   19   24 1
    39   20   21 ar
    40   20   43 1
    41   21   22 ar
    42   21   44 1
    43   22   23 ar
    44   23   45 1
    45   24   25 1
    46   24   26 1
    47   24   27 1
##########                 Name:                 1555
##########          Protonation:                  100
##########               SMILES:   CC(C)(C)n1c(c(c(n1)c2cc3ccc(cc3nc2)C(F)(F)F)C(=O)N)N
##########            Long Name:   -amino-1-tert-butyl-3-[7-(trifluoromethyl)-3-quinolyl]pyrazole-4-carboxamide
##########          FlexRecCode: 1
##########               Number:                  177
##########   Ligand Source File: /raid1/people/rgc/Examples/tdt/part3/ligand22set/build/ligand22set-0000001.db2.g
##########           GlobalRank: 20
##########                 Rank:                    3
##########               Setnum:                    4
##########             Matchnum:                28978
##########                Cloud:                    1
##########        Electrostatic:            -7.444969
##########        Van der Waals:           -25.406260
##########  Ligand Polar Desolv:             6.703796
########## Ligand Apolar Desolv:            -1.943141
##########      Internal Energy:             0.000000
##########      Receptor Energy: 0.0
########## Receptor Desolvation:             0.000000
########## Receptor Hydrophobic:             0.000000
##########         Total Energy: -28.09
##########        Ligand Charge:             0.000000
##########            Arbitrary:    +999.9990
##########     heavy atom count:   27
##########           pose count:   10
##########        Ligand Energy:             0.000000
# num electro vdwattr vdwrepu polsolv apolsol rdesolv rhydroe totalscore fullpol fullapo
#   1    1.24   -0.86    0.25   -0.22   -0.06    0.00    0.00       0.35   -0.64   -0.17
#   2   -0.93   -0.69    0.06    0.18   -0.04    0.00    0.00      -1.43    0.49   -0.12
#   3    0.70   -1.93    1.48   -0.32   -0.06    0.00    0.00      -0.13   -0.87   -0.17
#   4    1.22   -0.69    0.04   -0.14   -0.06    0.00    0.00       0.37   -0.36   -0.16
#   5    0.44   -1.44    0.42    0.04    0.38    0.00    0.00      -0.17    0.09    0.94
#   6   -0.87   -1.59    0.32    0.33    0.47    0.00    0.00      -1.34    0.76    1.08
#   7    1.10   -1.64    0.36   -0.26   -0.38    0.00    0.00      -0.81   -0.54   -0.77
#   8   -1.16   -1.85    0.79    0.65   -0.24    0.00    0.00      -1.81    1.15   -0.42
#   9    2.19   -2.37    0.44   -1.41   -0.34    0.00    0.00      -1.49   -2.23   -0.53
#  10   -2.30   -4.23    2.13   -0.37    1.32    0.00    0.00      -3.45   -0.55    1.96
#  11   -2.01   -3.87    3.95    3.40    0.27    0.00    0.00       1.73    5.22    0.41
#  12    0.01   -1.93    1.23   -0.08   -0.91    0.00    0.00      -1.68   -0.17   -1.98
#  13    2.54   -2.17    0.74   -1.27    0.39    0.00    0.00       0.23   -2.69    0.83
#  14   -0.69   -1.89    0.35    0.13   -0.22    0.00    0.00      -2.32    0.24   -0.40
#  15    1.88   -4.23    4.85   -0.52   -0.52    0.00    0.00       1.46   -0.92   -0.91
#  16   -5.35   -5.38    5.97    2.09    1.20    0.00    0.00      -1.47    3.43    1.98
#  17    1.76   -3.09    1.13   -0.26   -0.43    0.00    0.00      -0.89   -0.43   -0.73
#  18   -0.34   -3.46    1.90    0.12   -0.26    0.00    0.00      -2.04    0.21   -0.44
#  19   -1.78   -2.58    1.52    0.15   -0.24    0.00    0.00      -2.93    0.24   -0.38
#  20   -0.79   -2.80    1.04   -0.08   -0.28    0.00    0.00      -2.91   -0.13   -0.44
#  21   -0.70   -2.76    0.79   -0.10   -0.30    0.00    0.00      -3.07   -0.15   -0.46
#  22   -1.10   -2.37    0.73    0.08   -0.25    0.00    0.00      -2.92    0.12   -0.40
#  23   -0.31   -1.92    0.31    0.00   -0.27    0.00    0.00      -2.19    0.00   -0.45
#  24    4.77   -1.42    0.30   -0.77   -0.05    0.00    0.00       2.84   -1.18   -0.07
#  25   -1.42   -1.74    0.76    0.34   -0.30    0.00    0.00      -2.36    0.55   -0.48
#  26   -1.34   -1.29    0.34    0.19   -0.29    0.00    0.00      -2.38    0.30   -0.45
#  27   -1.82   -1.71    0.62    0.46   -0.30    0.00    0.00      -2.74    0.70   -0.45
#  28   -0.61   -0.62    0.66    0.11   -0.06    0.00    0.00      -0.54    0.34   -0.20
#  29   -0.59   -0.14    0.01    0.00   -0.04    0.00    0.00      -0.77    0.03   -0.28
#  30   -0.46   -0.26    0.06    0.22   -0.08    0.00    0.00      -0.52    0.81   -0.28
#  31   -0.09   -1.23    1.78    0.40   -0.12    0.00    0.00       0.75    0.93   -0.28
#  32   -0.16   -0.44    0.18    0.06   -0.08    0.00    0.00      -0.44    0.22   -0.28
#  33   -0.54   -0.92    2.30    0.13   -0.05    0.00    0.00       0.92    0.49   -0.20
#  34   -0.41   -0.33    0.03    0.00   -0.10    0.00    0.00      -0.81    0.00   -0.28
#  35   -0.75   -0.17    0.01    0.02   -0.05    0.00    0.00      -0.94    0.10   -0.28
#  36   -0.88   -0.18    0.01    0.12   -0.06    0.00    0.00      -0.99    0.59   -0.28
#  37    1.01   -0.07    0.00    0.89    0.38    0.00    0.00       2.21    1.40    0.59
#  38    0.11   -0.12    0.01    0.45    0.41    0.00    0.00       0.87    0.66    0.60
#  39   -1.70   -0.02    0.00    0.74    0.10    0.00    0.00      -0.89    2.47    0.32
#  40   -1.71   -0.06    0.00    0.71    0.26    0.00    0.00      -0.79    1.56    0.58
#  41    0.95   -1.50    5.30   -0.60   -0.11    0.00    0.00       4.05   -1.16   -0.21
#  42    0.74   -1.32    2.02   -0.34   -0.15    0.00    0.00       0.95   -0.60   -0.27
#  43    0.86   -0.62    0.14    0.39   -0.15    0.00    0.00       0.63    0.72   -0.27
#  44    0.53   -0.59    0.10    0.81   -0.17    0.00    0.00       0.68    1.36   -0.28
#  45    1.30   -0.44    0.12    0.22   -0.12    0.00    0.00       1.07    0.49   -0.28

@<TRIPOS>MOLECULE
             1555       100
   45    47     0     0     0



@<TRIPOS>ATOM
      1 C1         24.2294    16.3733    61.1779 C.3        1          -0.1675
      2 C2         23.6034    16.8771    62.4800 C.3        1           0.1773
      3 C3         24.6338    16.7914    63.6077 C.3        1          -0.1655
      4 C4         23.1602    18.3309    62.3036 C.3        1          -0.1412
      5 N1         22.4421    16.0497    62.8157 N.pl3      1          -0.3769
      6 N2         21.1319    16.5175    62.9471 N.2        1          -0.2711
      7 C5         20.3402    15.5166    63.2526 C.2        1           0.1726
      8 C6         21.1754    14.3121    63.3284 C.2        1          -0.3623
      9 C7         20.7301    12.9504    63.6401 C.2        1           0.6083
     10 N3         20.3410    12.1251    62.6481 N.am       1          -0.8472
     11 O1         20.7121    12.5653    64.7943 O.2        1          -0.5371
     12 C8         22.4742    14.7213    63.0388 C.2        1           0.4198
     13 N4         23.5920    13.9133    62.9915 N.pl3      1          -0.8428
     14 C9         18.8770    15.5891    63.4794 C.ar       1          -0.0570
     15 C10        18.0238    16.0358    62.4569 C.ar       1           0.1622
     16 N5         16.7287    16.1097    62.6290 N.ar       1          -0.4587
     17 C11        16.1529    15.7639    63.7857 C.ar       1           0.1258
     18 C12        14.7595    15.8496    63.9512 C.ar       1          -0.0303
     19 C13        14.1959    15.4918    65.1373 C.ar       1          -0.1587
     20 C14        14.9780    15.0391    66.1980 C.ar       1          -0.0871
     21 C15        16.3305    14.9423    66.0762 C.ar       1          -0.0822
     22 C16        16.9465    15.3031    64.8660 C.ar       1          -0.0845
     23 C17        18.3396    15.2109    64.7012 C.ar       1          -0.0264
     24 C18        12.7015    15.5873    65.3062 C.3        1           0.5086
     25 F1         12.1277    16.0622    64.1221 F          1          -0.1731
     26 F2         12.1837    14.3213    65.6003 F          1          -0.1736
     27 F3         12.4057    16.4667    66.3532 F          1          -0.1735
     28 H1         23.4953    16.4345    60.3745 H          1           0.0613
     29 H2         25.0935    16.9889    60.9282 H          1           0.0713
     30 H3         24.5452    15.3376    61.3035 H          1           0.0857
     31 H4         24.1880    17.1502    64.5353 H          1           0.0857
     32 H5         24.9496    15.7557    63.7334 H          1           0.0705
     33 H6         25.4980    17.4069    63.3580 H          1           0.0610
     34 H7         22.7144    18.6899    63.2312 H          1           0.0712
     35 H8         24.0245    18.9463    62.0539 H          1           0.0706
     36 H9         22.4263    18.3920    61.5001 H          1           0.0747
     37 H10        20.3555    12.4319    61.7281 H          1           0.4019
     38 H11        20.0465    11.2241    62.8543 H          1           0.4024
     39 H12        24.4583    14.2958    62.7813 H          1           0.4048
     40 H13        23.5115    12.9630    63.1683 H          1           0.4181
     41 H14        18.4467    16.3256    61.5064 H          1           0.1722
     42 H15        14.1382    16.1987    63.1397 H          1           0.1521
     43 H16        14.5053    14.7620    67.1286 H          1           0.1427
     44 H17        16.9265    14.5904    66.9053 H          1           0.1449
     45 H18        18.9726    14.8599    65.5028 H          1           0.1512
@<TRIPOS>BOND
     1    1    2 1
     2    1   28 1
     3    1   29 1
     4    1   30 1
     5    2    3 1
     6    2    4 1
     7    2    5 1
     8    3   31 1
     9    3   32 1
    10    3   33 1
    11    4   34 1
    12    4   35 1
    13    4   36 1
    14    5   12 1
    15    5    6 1
    16    6    7 2
    17    7    8 1
    18    7   14 1
    19    8    9 1
    20    8   12 2
    21    9   10 am
    22    9   11 2
    23   10   37 1
    24   10   38 1
    25   12   13 1
    26   13   39 1
    27   13   40 1
    28   14   23 ar
    29   14   15 ar
    30   15   16 ar
    31   15   41 1
    32   16   17 ar
    33   17   22 ar
    34   17   18 ar
    35   18   19 ar
    36   18   42 1
    37   19   20 ar
    38   19   24 1
    39   20   21 ar
    40   20   43 1
    41   21   22 ar
    42   21   44 1
    43   22   23 ar
    44   23   45 1
    45   24   25 1
    46   24   26 1
    47   24   27 1
##########                 Name:                 1555
##########          Protonation:                  100
##########               SMILES:   CC(C)(C)n1c(c(c(n1)c2cc3ccc(cc3nc2)C(F)(F)F)C(=O)N)N
##########            Long Name:   -amino-1-tert-butyl-3-[7-(trifluoromethyl)-3-quinolyl]pyrazole-4-carboxamide
##########          FlexRecCode: 1
##########               Number:                  176
##########   Ligand Source File: /raid1/people/rgc/Examples/tdt/part3/ligand22set/build/ligand22set-0000001.db2.g
##########           GlobalRank: 20
##########                 Rank:                    3
##########               Setnum:                    6
##########             Matchnum:                29363
##########                Cloud:                    1
##########        Electrostatic:            -7.565340
##########        Van der Waals:           -24.724838
##########  Ligand Polar Desolv:             6.573032
########## Ligand Apolar Desolv:            -1.914455
##########      Internal Energy:             0.000000
##########      Receptor Energy: 0.0
########## Receptor Desolvation:             0.000000
########## Receptor Hydrophobic:             0.000000
##########         Total Energy: -27.63
##########        Ligand Charge:             0.000000
##########            Arbitrary:    +999.9990
##########     heavy atom count:   27
##########           pose count:   10
##########        Ligand Energy:             0.000000
# num electro vdwattr vdwrepu polsolv apolsol rdesolv rhydroe totalscore fullpol fullapo
#   1    1.41   -0.96    0.33   -0.22   -0.06    0.00    0.00       0.50   -0.64   -0.17
#   2   -1.03   -0.66    0.06    0.17   -0.04    0.00    0.00      -1.51    0.49   -0.12
#   3    0.96   -1.51    1.16   -0.28   -0.05    0.00    0.00       0.29   -0.87   -0.17
#   4    1.15   -0.71    0.04   -0.14   -0.06    0.00    0.00       0.29   -0.36   -0.16
#   5    0.68   -1.35    0.28    0.04    0.37    0.00    0.00       0.02    0.09    0.94
#   6   -0.68   -1.57    0.28    0.33    0.47    0.00    0.00      -1.17    0.76    1.08
#   7    0.85   -1.68    0.38   -0.27   -0.38    0.00    0.00      -1.10   -0.54   -0.77
#   8   -0.81   -1.89    0.52    0.63   -0.23    0.00    0.00      -1.78    1.15   -0.42
#   9    2.85   -3.24    1.12   -1.41   -0.33    0.00    0.00      -1.01   -2.23   -0.53
#  10   -4.40   -5.87    5.35   -0.37    1.32    0.00    0.00      -3.97   -0.55    1.96
#  11   -3.49   -5.83    6.32    3.33    0.26    0.00    0.00       0.59    5.22    0.41
#  12   -0.58   -1.83    0.79   -0.08   -0.89    0.00    0.00      -2.58   -0.17   -1.98
#  13    4.69   -2.41    1.48   -1.23    0.38    0.00    0.00       2.91   -2.69    0.83
#  14   -0.51   -1.86    0.45    0.13   -0.22    0.00    0.00      -2.00    0.24   -0.40
#  15    1.21   -3.59    3.81   -0.53   -0.52    0.00    0.00       0.38   -0.92   -0.91
#  16   -2.88   -2.97    0.91    2.15    1.24    0.00    0.00      -1.56    3.43    1.98
#  17    1.24   -2.41    0.60   -0.28   -0.47    0.00    0.00      -1.32   -0.43   -0.73
#  18   -0.25   -2.92    1.03    0.14   -0.28    0.00    0.00      -2.28    0.21   -0.44
#  19   -1.79   -2.75    1.81    0.15   -0.24    0.00    0.00      -2.83    0.24   -0.38
#  20   -1.06   -3.15    1.50   -0.08   -0.26    0.00    0.00      -3.05   -0.13   -0.44
#  21   -1.12   -3.37    1.28   -0.09   -0.28    0.00    0.00      -3.58   -0.15   -0.46
#  22   -1.19   -2.30    0.59    0.07   -0.24    0.00    0.00      -3.07    0.12   -0.40
#  23   -0.34   -1.97    0.37    0.00   -0.25    0.00    0.00      -2.19    0.00   -0.45
#  24    4.81   -1.57    0.38   -0.77   -0.05    0.00    0.00       2.80   -1.18   -0.07
#  25   -1.19   -2.60    2.40    0.37   -0.32    0.00    0.00      -1.35    0.55   -0.48
#  26   -2.00   -1.42    0.34    0.20   -0.30    0.00    0.00      -3.19    0.30   -0.45
#  27   -1.43   -1.45    0.86    0.43   -0.28    0.00    0.00      -1.87    0.70   -0.45
#  28   -0.67   -0.67    0.78    0.11   -0.06    0.00    0.00      -0.51    0.34   -0.20
#  29   -0.73   -0.17    0.01    0.01   -0.06    0.00    0.00      -0.94    0.03   -0.28
#  30   -0.50   -0.31    0.09    0.25   -0.09    0.00    0.00      -0.56    0.81   -0.28
#  31   -0.41   -1.57    4.04    0.34   -0.10    0.00    0.00       2.30    0.93   -0.28
#  32   -0.27   -0.25    0.04    0.05   -0.06    0.00    0.00      -0.50    0.22   -0.28
#  33   -0.50   -0.44    0.46    0.09   -0.04    0.00    0.00      -0.42    0.49   -0.20
#  34   -0.36   -0.36    0.04    0.00   -0.10    0.00    0.00      -0.78    0.00   -0.28
#  35   -0.76   -0.17    0.01    0.02   -0.04    0.00    0.00      -0.95    0.10   -0.28
#  36   -0.75   -0.18    0.01    0.12   -0.06    0.00    0.00      -0.86    0.59   -0.28
#  37    1.10   -0.07    0.00    0.89    0.37    0.00    0.00       2.29    1.40    0.59
#  38    2.38   -0.21    0.04    0.45    0.41    0.00    0.00       3.07    0.66    0.60
#  39   -2.08   -0.02    0.00    0.72    0.09    0.00    0.00      -1.28    2.47    0.32
#  40   -4.83   -0.14    0.06    0.67    0.25    0.00    0.00      -4.00    1.56    0.58
#  41    1.22   -1.71    6.67   -0.61   -0.11    0.00    0.00       5.46   -1.16   -0.21
#  42    0.36   -0.66    0.14   -0.35   -0.16    0.00    0.00      -0.67   -0.60   -0.27
#  43    1.08   -0.81    0.55    0.38   -0.14    0.00    0.00       1.06    0.72   -0.27
#  44    1.30   -1.13    0.94    0.84   -0.17    0.00    0.00       1.77    1.36   -0.28
#  45    1.73   -0.47    0.14    0.22   -0.13    0.00    0.00       1.49    0.49   -0.28

@<TRIPOS>MOLECULE
             1555       100
   45    47     0     0     0



@<TRIPOS>ATOM
      1 C1         24.2085    16.5211    60.8893 C.3        1          -0.1675
      2 C2         23.9017    16.8683    62.3475 C.3        1           0.1773
      3 C3         25.1856    16.7770    63.1746 C.3        1          -0.1655
      4 C4         23.3442    18.2909    62.4264 C.3        1          -0.1412
      5 N1         22.9124    15.9260    62.8760 N.pl3      1          -0.3769
      6 N2         21.6523    16.2746    63.3691 N.2        1          -0.2711
      7 C5         21.0226    15.1921    63.7611 C.2        1           0.1726
      8 C6         21.9190    14.0567    63.5131 C.2        1          -0.3623
      9 C7         21.6468    12.6432    63.7913 C.2        1           0.6083
     10 N3         21.0696    11.8702    62.8500 N.am       1          -0.8472
     11 O1         21.9419    12.1678    64.8720 O.2        1          -0.5371
     12 C8         23.0771    14.5909    62.9550 C.2        1           0.4198
     13 N4         24.1924    13.8822    62.5573 N.pl3      1          -0.8428
     14 C9         19.6617    15.1282    64.3456 C.ar       1          -0.0570
     15 C10        19.4701    14.6113    65.6375 C.ar       1           0.1622
     16 N5         18.2806    14.5433    66.1784 N.ar       1          -0.4587
     17 C11        17.1886    14.9619    65.5293 C.ar       1           0.1258
     18 C12        15.9191    14.8812    66.1276 C.ar       1          -0.0303
     19 C13        14.8222    15.3138    65.4478 C.ar       1          -0.1587
     20 C14        14.9335    15.8388    64.1618 C.ar       1          -0.0871
     21 C15        16.1455    15.9335    63.5491 C.ar       1          -0.0822
     22 C16        17.2995    15.4964    64.2212 C.ar       1          -0.0845
     23 C17        18.5686    15.5837    63.6229 C.ar       1          -0.0264
     24 C18        13.4649    15.2230    66.0964 C.3        1           0.5086
     25 F1         13.5949    14.6687    67.3742 F          1          -0.1731
     26 F2         12.9101    16.5034    66.1978 F          1          -0.1736
     27 F3         12.6299    14.4131    65.3193 F          1          -0.1735
     28 H1         23.2938    16.5862    60.3000 H          1           0.0613
     29 H2         24.9447    17.2222    60.4960 H          1           0.0713
     30 H3         24.6058    15.5076    60.8329 H          1           0.0857
     31 H4         24.9670    17.0244    64.2133 H          1           0.0857
     32 H5         25.5828    15.7636    63.1183 H          1           0.0705
     33 H6         25.9217    17.4782    62.7813 H          1           0.0610
     34 H7         23.1255    18.5384    63.4652 H          1           0.0712
     35 H8         24.0804    18.9920    62.0332 H          1           0.0706
     36 H9         22.4295    18.3560    61.8371 H          1           0.0747
     37 H10        20.8345    12.2490    61.9886 H          1           0.4019
     38 H11        20.8897    10.9349    63.0340 H          1           0.4024
     39 H12        24.9541    14.3487    62.1791 H          1           0.4048
     40 H13        24.2146    12.9175    62.6558 H          1           0.4181
     41 H14        20.3248    14.2614    66.1974 H          1           0.1722
     42 H15        15.8144    14.4766    67.1235 H          1           0.1521
     43 H16        14.0469    16.1746    63.6445 H          1           0.1427
     44 H17        16.2195    16.3418    62.5520 H          1           0.1449
     45 H18        18.6886    15.9895    62.6292 H          1           0.1512
@<TRIPOS>BOND
     1    1    2 1
     2    1   28 1
     3    1   29 1
     4    1   30 1
     5    2    3 1
     6    2    4 1
     7    2    5 1
     8    3   31 1
     9    3   32 1
    10    3   33 1
    11    4   34 1
    12    4   35 1
    13    4   36 1
    14    5   12 1
    15    5    6 1
    16    6    7 2
    17    7    8 1
    18    7   14 1
    19    8    9 1
    20    8   12 2
    21    9   10 am
    22    9   11 2
    23   10   37 1
    24   10   38 1
    25   12   13 1
    26   13   39 1
    27   13   40 1
    28   14   23 ar
    29   14   15 ar
    30   15   16 ar
    31   15   41 1
    32   16   17 ar
    33   17   22 ar
    34   17   18 ar
    35   18   19 ar
    36   18   42 1
    37   19   20 ar
    38   19   24 1
    39   20   21 ar
    40   20   43 1
    41   21   22 ar
    42   21   44 1
    43   22   23 ar
    44   23   45 1
    45   24   25 1
    46   24   26 1
    47   24   27 1
##########                 Name:                 1555
##########          Protonation:                  100
##########               SMILES:   CC(C)(C)n1c(c(c(n1)c2cc3ccc(cc3nc2)C(F)(F)F)C(=O)N)N
##########            Long Name:   -amino-1-tert-butyl-3-[7-(trifluoromethyl)-3-quinolyl]pyrazole-4-carboxamide
##########          FlexRecCode: 1
##########               Number:                  177
##########   Ligand Source File: /raid1/people/rgc/Examples/tdt/part3/ligand22set/build/ligand22set-0000001.db2.g
##########           GlobalRank: 21
##########                 Rank:                    4
##########               Setnum:                    7
##########             Matchnum:                33013
##########                Cloud:                    1
##########        Electrostatic:            -5.120707
##########        Van der Waals:           -26.331459
##########  Ligand Polar Desolv:             6.750250
########## Ligand Apolar Desolv:            -1.993336
##########      Internal Energy:             0.000000
##########      Receptor Energy: 0.0
########## Receptor Desolvation:             0.000000
########## Receptor Hydrophobic:             0.000000
##########         Total Energy: -26.7
##########        Ligand Charge:             0.000000
##########            Arbitrary:    +999.9990
##########     heavy atom count:   27
##########           pose count:   10
##########        Ligand Energy:             0.000000
# num electro vdwattr vdwrepu polsolv apolsol rdesolv rhydroe totalscore fullpol fullapo
#   1    1.48   -0.99    0.37   -0.22   -0.06    0.00    0.00       0.57   -0.64   -0.17
#   2   -1.08   -0.65    0.05    0.17   -0.04    0.00    0.00      -1.55    0.49   -0.12
#   3    1.00   -1.49    1.11   -0.28   -0.05    0.00    0.00       0.29   -0.87   -0.17
#   4    1.24   -0.70    0.04   -0.14   -0.06    0.00    0.00       0.37   -0.36   -0.16
#   5    0.67   -1.35    0.29    0.04    0.37    0.00    0.00       0.02    0.09    0.94
#   6   -0.77   -1.57    0.28    0.33    0.47    0.00    0.00      -1.26    0.76    1.08
#   7    0.92   -1.68    0.38   -0.27   -0.38    0.00    0.00      -1.03   -0.54   -0.77
#   8   -0.88   -1.84    0.50    0.63   -0.23    0.00    0.00      -1.82    1.15   -0.42
#   9    2.68   -2.96    0.86   -1.40   -0.33    0.00    0.00      -1.15   -2.23   -0.53
#  10   -5.23   -6.89   10.34   -0.35    1.25    0.00    0.00      -0.89   -0.55    1.96
#  11   -2.66   -4.12    1.98    3.48    0.27    0.00    0.00      -1.04    5.22    0.41
#  12   -0.47   -1.80    0.81   -0.08   -0.88    0.00    0.00      -2.42   -0.17   -1.98
#  13    4.07   -2.12    0.88   -1.21    0.37    0.00    0.00       2.00   -2.69    0.83
#  14   -0.55   -1.83    0.41    0.13   -0.22    0.00    0.00      -2.06    0.24   -0.40
#  15    1.29   -3.34    3.07   -0.53   -0.52    0.00    0.00      -0.03   -0.92   -0.91
#  16   -3.18   -2.76    0.63    2.15    1.24    0.00    0.00      -1.91    3.43    1.98
#  17    1.33   -2.39    0.60   -0.28   -0.47    0.00    0.00      -1.22   -0.43   -0.73
#  18   -0.27   -2.86    1.05    0.14   -0.29    0.00    0.00      -2.23    0.21   -0.44
#  19   -1.81   -2.74    1.90    0.15   -0.24    0.00    0.00      -2.74    0.24   -0.38
#  20   -1.00   -3.31    1.71   -0.08   -0.26    0.00    0.00      -2.94   -0.13   -0.44
#  21   -1.06   -3.64    1.60   -0.09   -0.28    0.00    0.00      -3.47   -0.15   -0.46
#  22   -1.22   -2.38    0.64    0.07   -0.24    0.00    0.00      -3.12    0.12   -0.40
#  23   -0.36   -2.05    0.43    0.00   -0.25    0.00    0.00      -2.23    0.00   -0.45
#  24    4.83   -1.52    0.36   -0.77   -0.05    0.00    0.00       2.85   -1.18   -0.07
#  25   -1.28   -2.48    2.23    0.36   -0.32    0.00    0.00      -1.48    0.55   -0.48
#  26   -1.93   -1.49    0.48    0.20   -0.30    0.00    0.00      -3.04    0.30   -0.45
#  27   -1.42   -1.39    0.75    0.43   -0.28    0.00    0.00      -1.91    0.70   -0.45
#  28   -0.69   -0.71    0.91    0.11   -0.07    0.00    0.00      -0.45    0.34   -0.20
#  29   -0.77   -0.18    0.02    0.01   -0.06    0.00    0.00      -0.99    0.03   -0.28
#  30   -0.52   -0.32    0.10    0.25   -0.09    0.00    0.00      -0.58    0.81   -0.28
#  31   -0.44   -1.45    3.36    0.35   -0.11    0.00    0.00       1.72    0.93   -0.28
#  32   -0.29   -0.27    0.05    0.05   -0.06    0.00    0.00      -0.52    0.22   -0.28
#  33   -0.51   -0.41    0.38    0.09   -0.04    0.00    0.00      -0.48    0.49   -0.20
#  34   -0.39   -0.35    0.04    0.00   -0.10    0.00    0.00      -0.81    0.00   -0.28
#  35   -0.82   -0.17    0.01    0.02   -0.04    0.00    0.00      -1.00    0.10   -0.28
#  36   -0.80   -0.18    0.01    0.13   -0.06    0.00    0.00      -0.91    0.59   -0.28
#  37    2.30   -0.16    0.04    0.86    0.36    0.00    0.00       3.40    1.40    0.59
#  38    3.67   -0.23    0.06    0.45    0.41    0.00    0.00       4.35    0.66    0.60
#  39   -1.94   -0.02    0.00    0.69    0.09    0.00    0.00      -1.18    2.47    0.32
#  40   -3.90   -0.09    0.02    0.66    0.24    0.00    0.00      -3.07    1.56    0.58
#  41    1.25   -1.50    4.33   -0.60   -0.11    0.00    0.00       3.37   -1.16   -0.21
#  42    0.54   -0.63    0.12   -0.35   -0.16    0.00    0.00      -0.46   -0.60   -0.27
#  43    1.02   -0.88    0.64    0.38   -0.14    0.00    0.00       1.03    0.72   -0.27
#  44    1.11   -1.31    1.37    0.85   -0.17    0.00    0.00       1.85    1.36   -0.28
#  45    1.72   -0.52    0.18    0.22   -0.13    0.00    0.00       1.48    0.49   -0.28

@<TRIPOS>MOLECULE
             1555       100
   45    47     0     0     0



@<TRIPOS>ATOM
      1 C1         24.0968    16.6041    60.8591 C.3        1          -0.1675
      2 C2         23.7657    16.9930    62.3014 C.3        1           0.1773
      3 C3         25.0412    16.9555    63.1455 C.3        1          -0.1655
      4 C4         23.1787    18.4057    62.3267 C.3        1          -0.1412
      5 N1         22.7892    16.0486    62.8498 N.pl3      1          -0.3769
      6 N2         21.5166    16.3874    63.3169 N.2        1          -0.2711
      7 C5         20.9041    15.3058    63.7376 C.2        1           0.1726
      8 C6         21.8261    14.1814    63.5377 C.2        1          -0.3623
      9 C7         21.5790    12.7726    63.8597 C.2        1           0.6083
     10 N3         21.9022    12.2929    65.0771 N.am       1          -0.8472
     11 O1         21.0823    12.0362    63.0277 O.2        1          -0.5371
     12 C8         22.9798    14.7205    62.9751 C.2        1           0.4198
     13 N4         24.1138    14.0220    62.6138 N.pl3      1          -0.8428
     14 C9         19.5379    15.2334    64.3085 C.ar       1          -0.0570
     15 C10        19.3413    14.7557    65.6147 C.ar       1           0.1622
     16 N5         18.1471    14.6812    66.1441 N.ar       1          -0.4587
     17 C11        17.0547    15.0557    65.4691 C.ar       1           0.1258
     18 C12        15.7800    14.9687    66.0554 C.ar       1          -0.0303
     19 C13        14.6828    15.3561    65.3492 C.ar       1          -0.1587
     20 C14        14.7989    15.8405    64.0478 C.ar       1          -0.0871
     21 C15        16.0160    15.9396    63.4460 C.ar       1          -0.0822
     22 C16        17.1704    15.5487    64.1453 C.ar       1          -0.0845
     23 C17        18.4446    15.6422    63.5587 C.ar       1          -0.0264
     24 C18        13.3200    15.2591    65.9851 C.3        1           0.5086
     25 F1         13.4458    14.7500    67.2820 F          1          -0.1731
     26 F2         12.7384    16.5304    66.0376 F          1          -0.1736
     27 F3         12.5107    14.4070    65.2261 F          1          -0.1735
     28 H1         23.1880    16.6309    60.2578 H          1           0.0613
     29 H2         24.8234    17.3067    60.4512 H          1           0.0713
     30 H3         24.5149    15.5976    60.8411 H          1           0.0857
     31 H4         24.8052    17.2325    64.1729 H          1           0.0857
     32 H5         25.4593    15.9490    63.1276 H          1           0.0705
     33 H6         25.7677    17.6581    62.7374 H          1           0.0610
     34 H7         22.9427    18.6828    63.3541 H          1           0.0712
     35 H8         23.9053    19.1083    61.9187 H          1           0.0706
     36 H9         22.2700    18.4325    61.7253 H          1           0.0747
     37 H10        22.2980    12.8798    65.7402 H          1           0.4019
     38 H11        21.7387    11.3608    65.2902 H          1           0.4024
     39 H12        24.8705    14.4913    62.2290 H          1           0.4048
     40 H13        24.1542    13.0618    62.7446 H          1           0.4181
     41 H14        20.1961    14.4421    66.1955 H          1           0.1722
     42 H15        15.6716    14.5953    67.0630 H          1           0.1521
     43 H16        13.9120    16.1406    63.5096 H          1           0.1427
     44 H17        16.0937    16.3161    62.4367 H          1           0.1449
     45 H18        18.5682    16.0173    62.5534 H          1           0.1512
@<TRIPOS>BOND
     1    1    2 1
     2    1   28 1
     3    1   29 1
     4    1   30 1
     5    2    3 1
     6    2    4 1
     7    2    5 1
     8    3   31 1
     9    3   32 1
    10    3   33 1
    11    4   34 1
    12    4   35 1
    13    4   36 1
    14    5   12 1
    15    5    6 1
    16    6    7 2
    17    7    8 1
    18    7   14 1
    19    8    9 1
    20    8   12 2
    21    9   10 am
    22    9   11 2
    23   10   37 1
    24   10   38 1
    25   12   13 1
    26   13   39 1
    27   13   40 1
    28   14   23 ar
    29   14   15 ar
    30   15   16 ar
    31   15   41 1
    32   16   17 ar
    33   17   22 ar
    34   17   18 ar
    35   18   19 ar
    36   18   42 1
    37   19   20 ar
    38   19   24 1
    39   20   21 ar
    40   20   43 1
    41   21   22 ar
    42   21   44 1
    43   22   23 ar
    44   23   45 1
    45   24   25 1
    46   24   26 1
    47   24   27 1
##########                 Name:                 1555
##########          Protonation:                  100
##########               SMILES:   CC(C)(C)n1c(c(c(n1)c2cc3ccc(cc3nc2)C(F)(F)F)C(=O)N)N
##########            Long Name:   -amino-1-tert-butyl-3-[7-(trifluoromethyl)-3-quinolyl]pyrazole-4-carboxamide
##########          FlexRecCode: 1
##########               Number:                  177
##########   Ligand Source File: /raid1/people/rgc/Examples/tdt/part3/ligand22set/build/ligand22set-0000001.db2.g
##########           GlobalRank: 21
##########                 Rank:                    5
##########               Setnum:                    6
##########             Matchnum:                35378
##########                Cloud:                    1
##########        Electrostatic:            -9.141785
##########        Van der Waals:           -21.948559
##########  Ligand Polar Desolv:             6.728861
########## Ligand Apolar Desolv:            -1.888186
##########      Internal Energy:             0.000000
##########      Receptor Energy: 0.0
########## Receptor Desolvation:             0.000000
########## Receptor Hydrophobic:             0.000000
##########         Total Energy: -26.25
##########        Ligand Charge:             0.000000
##########            Arbitrary:    +999.9990
##########     heavy atom count:   27
##########           pose count:   10
##########        Ligand Energy:             0.000000
# num electro vdwattr vdwrepu polsolv apolsol rdesolv rhydroe totalscore fullpol fullapo
#   1    1.42   -0.83    0.20   -0.22   -0.06    0.00    0.00       0.52   -0.64   -0.17
#   2   -0.99   -0.68    0.06    0.17   -0.04    0.00    0.00      -1.48    0.49   -0.12
#   3    0.86   -1.47    0.99   -0.28   -0.05    0.00    0.00       0.06   -0.87   -0.17
#   4    1.01   -0.83    0.08   -0.14   -0.06    0.00    0.00       0.07   -0.36   -0.16
#   5    0.75   -1.37    0.32    0.04    0.37    0.00    0.00       0.11    0.09    0.94
#   6   -0.60   -1.55    0.27    0.33    0.46    0.00    0.00      -1.09    0.76    1.08
#   7    0.76   -1.64    0.37   -0.27   -0.39    0.00    0.00      -1.17   -0.54   -0.77
#   8   -0.61   -2.16    1.25    0.63   -0.23    0.00    0.00      -1.13    1.15   -0.42
#   9    2.73   -3.58    1.61   -1.41   -0.34    0.00    0.00      -0.98   -2.23   -0.53
#  10   -2.99   -6.22    6.10   -0.37    1.32    0.00    0.00      -2.16   -0.55    1.96
#  11   -4.30   -6.17    6.18    3.39    0.27    0.00    0.00      -0.63    5.22    0.41
#  12   -0.83   -2.11    1.57   -0.08   -0.89    0.00    0.00      -2.33   -0.17   -1.98
#  13    5.53   -2.97    2.78   -1.24    0.38    0.00    0.00       4.49   -2.69    0.83
#  14   -0.47   -1.74    0.33    0.13   -0.22    0.00    0.00      -1.97    0.24   -0.40
#  15    1.08   -3.16    2.79   -0.53   -0.52    0.00    0.00      -0.34   -0.92   -0.91
#  16   -2.44   -3.03    1.11    2.13    1.23    0.00    0.00      -1.02    3.43    1.98
#  17    1.18   -2.56    0.91   -0.28   -0.47    0.00    0.00      -1.21   -0.43   -0.73
#  18   -0.23   -3.25    1.77    0.14   -0.28    0.00    0.00      -1.85    0.21   -0.44
#  19   -1.81   -2.83    2.06    0.15   -0.24    0.00    0.00      -2.67    0.24   -0.38
#  20   -1.10   -3.17    1.38   -0.08   -0.26    0.00    0.00      -3.24   -0.13   -0.44
#  21   -1.21   -3.40    1.34   -0.09   -0.28    0.00    0.00      -3.64   -0.15   -0.46
#  22   -1.21   -2.28    0.56    0.07   -0.24    0.00    0.00      -3.09    0.12   -0.40
#  23   -0.34   -1.97    0.39    0.00   -0.25    0.00    0.00      -2.18    0.00   -0.45
#  24    4.83   -1.57    0.43   -0.77   -0.05    0.00    0.00       2.87   -1.18   -0.07
#  25   -1.11   -2.32    1.30    0.36   -0.31    0.00    0.00      -2.08    0.55   -0.48
#  26   -2.05   -1.39    0.28    0.20   -0.30    0.00    0.00      -3.26    0.30   -0.45
#  27   -1.47   -1.38    0.84    0.43   -0.27    0.00    0.00      -1.87    0.70   -0.45
#  28   -0.71   -0.45    0.29    0.10   -0.06    0.00    0.00      -0.83    0.34   -0.20
#  29   -0.70   -0.15    0.01    0.01   -0.05    0.00    0.00      -0.88    0.03   -0.28
#  30   -0.52   -0.30    0.08    0.25   -0.09    0.00    0.00      -0.58    0.81   -0.28
#  31   -0.29   -1.45    2.97    0.34   -0.10    0.00    0.00       1.46    0.93   -0.28
#  32   -0.25   -0.22    0.02    0.04   -0.06    0.00    0.00      -0.46    0.22   -0.28
#  33   -0.48   -0.50    0.65    0.10   -0.04    0.00    0.00      -0.28    0.49   -0.20
#  34   -0.28   -0.45    0.08    0.00   -0.11    0.00    0.00      -0.76    0.00   -0.28
#  35   -0.64   -0.22    0.02    0.02   -0.06    0.00    0.00      -0.87    0.10   -0.28
#  36   -0.68   -0.18    0.01    0.13   -0.06    0.00    0.00      -0.79    0.59   -0.28
#  37    0.85   -0.11    0.02    0.91    0.39    0.00    0.00       2.06    1.40    0.59
#  38    1.29   -0.24    0.07    0.46    0.42    0.00    0.00       1.99    0.66    0.60
#  39   -2.22   -0.02    0.00    0.77    0.10    0.00    0.00      -1.38    2.47    0.32
#  40   -6.37   -0.24    0.19    0.70    0.26    0.00    0.00      -5.46    1.56    0.58
#  41    1.08   -1.66    8.93   -0.59   -0.11    0.00    0.00       7.65   -1.16   -0.21
#  42    0.15   -0.76    0.32   -0.35   -0.16    0.00    0.00      -0.80   -0.60   -0.27
#  43    0.94   -0.98    1.20    0.39   -0.15    0.00    0.00       1.41    0.72   -0.27
#  44    1.41   -1.12    0.94    0.84   -0.17    0.00    0.00       1.90    1.36   -0.28
#  45    1.87   -0.48    0.17    0.22   -0.12    0.00    0.00       1.65    0.49   -0.28

@<TRIPOS>MOLECULE
             1555       100
   45    47     0     0     0



@<TRIPOS>ATOM
      1 C1         24.3229    16.6465    60.9435 C.3        1          -0.1675
      2 C2         24.0386    16.7907    62.4400 C.3        1           0.1773
      3 C3         25.3164    16.5060    63.2318 C.3        1          -0.1655
      4 C4         23.5631    18.2149    62.7337 C.3        1          -0.1412
      5 N1         22.9978    15.8375    62.8332 N.pl3      1          -0.3769
      6 N2         21.7604    16.1794    63.3849 N.2        1          -0.2711
      7 C5         21.0706    15.0880    63.6188 C.2        1           0.1726
      8 C6         21.9005    13.9533    63.1970 C.2        1          -0.3623
      9 C7         21.5485    12.5317    63.2659 C.2        1           0.6083
     10 N3         20.9269    11.9402    62.2264 N.am       1          -0.8472
     11 O1         21.8176    11.8858    64.2615 O.2        1          -0.5371
     12 C8         23.0864    14.4983    62.7124 C.2        1           0.4198
     13 N4         24.1589    13.7948    62.2034 N.pl3      1          -0.8428
     14 C9         19.7092    15.0148    64.2008 C.ar       1          -0.0570
     15 C10        19.4903    14.3238    65.4041 C.ar       1           0.1622
     16 N5         18.2997    14.2433    65.9407 N.ar       1          -0.4587
     17 C11        17.2323    14.8142    65.3714 C.ar       1           0.1258
     18 C12        15.9611    14.7171    65.9636 C.ar       1          -0.0303
     19 C13        14.8897    15.3066    65.3661 C.ar       1          -0.1587
     20 C14        15.0289    16.0091    64.1708 C.ar       1          -0.0871
     21 C15        16.2434    16.1252    63.5668 C.ar       1          -0.0822
     22 C16        17.3716    15.5293    64.1556 C.ar       1          -0.0845
     23 C17        18.6428    15.6329    63.5642 C.ar       1          -0.0264
     24 C18        13.5304    15.1972    66.0076 C.3        1           0.5086
     25 F1         13.6305    14.4533    67.1880 F          1          -0.1731
     26 F2         13.0497    16.4775    66.3025 F          1          -0.1736
     27 F3         12.6494    14.5595    65.1276 F          1          -0.1735
     28 H1         23.4125    16.8494    60.3794 H          1           0.0613
     29 H2         25.0973    17.3556    60.6510 H          1           0.0713
     30 H3         24.6616    15.6318    60.7341 H          1           0.0857
     31 H4         25.1137    16.6086    64.2978 H          1           0.0857
     32 H5         25.6551    15.4912    63.0225 H          1           0.0705
     33 H6         26.0907    17.2151    62.9391 H          1           0.0610
     34 H7         23.3604    18.3177    63.7998 H          1           0.0712
     35 H8         24.3375    18.9240    62.4412 H          1           0.0706
     36 H9         22.6528    18.4178    62.1696 H          1           0.0747
     37 H10        20.7125    12.4550    61.4328 H          1           0.4019
     38 H11        20.6942    10.9996    62.2720 H          1           0.4024
     39 H12        24.9455    14.2687    61.8908 H          1           0.4048
     40 H13        24.1261    12.8265    62.1580 H          1           0.4181
     41 H14        20.3244    13.8475    65.8977 H          1           0.1722
     42 H15        15.8350    14.1762    66.8899 H          1           0.1521
     43 H16        14.1621    16.4670    63.7175 H          1           0.1427
     44 H17        16.3392    16.6719    62.6403 H          1           0.1449
     45 H18        18.7842    16.1740    62.6402 H          1           0.1512
@<TRIPOS>BOND
     1    1    2 1
     2    1   28 1
     3    1   29 1
     4    1   30 1
     5    2    3 1
     6    2    4 1
     7    2    5 1
     8    3   31 1
     9    3   32 1
    10    3   33 1
    11    4   34 1
    12    4   35 1
    13    4   36 1
    14    5   12 1
    15    5    6 1
    16    6    7 2
    17    7    8 1
    18    7   14 1
    19    8    9 1
    20    8   12 2
    21    9   10 am
    22    9   11 2
    23   10   37 1
    24   10   38 1
    25   12   13 1
    26   13   39 1
    27   13   40 1
    28   14   23 ar
    29   14   15 ar
    30   15   16 ar
    31   15   41 1
    32   16   17 ar
    33   17   22 ar
    34   17   18 ar
    35   18   19 ar
    36   18   42 1
    37   19   20 ar
    38   19   24 1
    39   20   21 ar
    40   20   43 1
    41   21   22 ar
    42   21   44 1
    43   22   23 ar
    44   23   45 1
    45   24   25 1
    46   24   26 1
    47   24   27 1
##########                 Name:                 1555
##########          Protonation:                  100
##########               SMILES:   CC(C)(C)n1c(c(c(n1)c2cc3ccc(cc3nc2)C(F)(F)F)C(=O)N)N
##########            Long Name:   -amino-1-tert-butyl-3-[7-(trifluoromethyl)-3-quinolyl]pyrazole-4-carboxamide
##########          FlexRecCode: 1
##########               Number:                  176
##########   Ligand Source File: /raid1/people/rgc/Examples/tdt/part3/ligand22set/build/ligand22set-0000001.db2.g
##########           GlobalRank: 21
##########                 Rank:                    4
##########               Setnum:                    4
##########             Matchnum:                21275
##########                Cloud:                    1
##########        Electrostatic:            -8.510298
##########        Van der Waals:           -19.795731
##########  Ligand Polar Desolv:             6.819849
########## Ligand Apolar Desolv:            -1.915360
##########      Internal Energy:             0.000000
##########      Receptor Energy: 0.0
########## Receptor Desolvation:             0.000000
########## Receptor Hydrophobic:             0.000000
##########         Total Energy: -23.4
##########        Ligand Charge:             0.000000
##########            Arbitrary:    +999.9990
##########     heavy atom count:   27
##########           pose count:   10
##########        Ligand Energy:             0.000000
# num electro vdwattr vdwrepu polsolv apolsol rdesolv rhydroe totalscore fullpol fullapo
#   1    1.12   -0.71    0.11   -0.22   -0.06    0.00    0.00       0.25   -0.64   -0.17
#   2   -0.85   -0.73    0.07    0.17   -0.04    0.00    0.00      -1.38    0.49   -0.12
#   3    0.60   -2.40    2.57   -0.32   -0.06    0.00    0.00       0.39   -0.87   -0.17
#   4    1.03   -0.77    0.07   -0.14   -0.06    0.00    0.00       0.13   -0.36   -0.16
#   5    0.52   -1.40    0.33    0.04    0.38    0.00    0.00      -0.13    0.09    0.94
#   6   -0.59   -1.50    0.28    0.33    0.46    0.00    0.00      -1.02    0.76    1.08
#   7    0.88   -1.63    0.44   -0.27   -0.38    0.00    0.00      -0.96   -0.54   -0.77
#   8   -0.91   -2.04    1.15    0.65   -0.24    0.00    0.00      -1.39    1.15   -0.42
#   9    2.25   -2.74    0.66   -1.42   -0.34    0.00    0.00      -1.59   -2.23   -0.53
#  10   -2.53   -5.18    4.08   -0.37    1.32    0.00    0.00      -2.67   -0.55    1.96
#  11   -2.18   -3.87    1.90    3.45    0.27    0.00    0.00      -0.43    5.22    0.41
#  12   -0.27   -1.97    1.09   -0.08   -0.92    0.00    0.00      -2.15   -0.17   -1.98
#  13    3.91   -2.75    1.90   -1.29    0.40    0.00    0.00       2.17   -2.69    0.83
#  14   -0.60   -1.73    0.25    0.13   -0.22    0.00    0.00      -2.16    0.24   -0.40
#  15    1.89   -3.39    2.40   -0.51   -0.50    0.00    0.00      -0.11   -0.92   -0.91
#  16   -5.92   -4.51    3.70    2.05    1.18    0.00    0.00      -3.49    3.43    1.98
#  17    1.81   -2.90    0.99   -0.25   -0.43    0.00    0.00      -0.79   -0.43   -0.73
#  18   -0.36   -3.33    1.71    0.13   -0.26    0.00    0.00      -2.13    0.21   -0.44
#  19   -1.79   -2.89    2.60    0.15   -0.24    0.00    0.00      -2.17    0.24   -0.38
#  20   -0.67   -3.23    1.83   -0.08   -0.28    0.00    0.00      -2.43   -0.13   -0.44
#  21   -0.55   -3.05    1.20   -0.10   -0.30    0.00    0.00      -2.79   -0.15   -0.46
#  22   -0.99   -2.39    0.85    0.08   -0.25    0.00    0.00      -2.70    0.12   -0.40
#  23   -0.26   -1.91    0.33    0.00   -0.26    0.00    0.00      -2.11    0.00   -0.45
#  24    4.93   -1.42    0.33   -0.77   -0.05    0.00    0.00       3.03   -1.18   -0.07
#  25   -1.48   -1.68    0.69    0.34   -0.30    0.00    0.00      -2.42    0.55   -0.48
#  26   -1.37   -1.47    0.70    0.19   -0.28    0.00    0.00      -2.23    0.30   -0.45
#  27   -1.87   -1.49    0.38    0.47   -0.30    0.00    0.00      -2.82    0.70   -0.45
#  28   -0.57   -0.42    0.23    0.10   -0.06    0.00    0.00      -0.71    0.34   -0.20
#  29   -0.50   -0.13    0.00    0.00   -0.04    0.00    0.00      -0.66    0.03   -0.28
#  30   -0.43   -0.23    0.03    0.22   -0.08    0.00    0.00      -0.48    0.81   -0.28
#  31    0.03   -2.20   10.69    0.41   -0.12    0.00    0.00       8.80    0.93   -0.28
#  32   -0.13   -0.45    0.18    0.06   -0.08    0.00    0.00      -0.42    0.22   -0.28
#  33   -0.54   -1.30    5.22    0.14   -0.06    0.00    0.00       3.45    0.49   -0.20
#  34   -0.31   -0.38    0.05    0.00   -0.11    0.00    0.00      -0.75    0.00   -0.28
#  35   -0.62   -0.22    0.03    0.02   -0.05    0.00    0.00      -0.85    0.10   -0.28
#  36   -0.76   -0.16    0.01    0.11   -0.05    0.00    0.00      -0.87    0.59   -0.28
#  37    0.91   -0.10    0.01    0.92    0.39    0.00    0.00       2.12    1.40    0.59
#  38    0.55   -0.18    0.04    0.45    0.41    0.00    0.00       1.28    0.66    0.60
#  39   -2.08   -0.02    0.00    0.76    0.10    0.00    0.00      -1.24    2.47    0.32
#  40   -3.32   -0.13    0.04    0.74    0.28    0.00    0.00      -2.39    1.56    0.58
#  41    0.94   -0.90    1.18   -0.56   -0.10    0.00    0.00       0.55   -1.16   -0.21
#  42    0.75   -1.27    2.27   -0.34   -0.15    0.00    0.00       1.26   -0.60   -0.27
#  43    0.59   -0.69    0.20    0.40   -0.15    0.00    0.00       0.36    0.72   -0.27
#  44    0.15   -0.68    0.22    0.82   -0.17    0.00    0.00       0.34    1.36   -0.28
#  45    1.10   -0.49    0.18    0.21   -0.12    0.00    0.00       0.88    0.49   -0.28

@<TRIPOS>MOLECULE
             1555       100
   45    47     0     0     0



@<TRIPOS>ATOM
      1 C1         24.6032    16.2411    61.3260 C.3        1          -0.1675
      2 C2         23.9867    16.6366    62.6693 C.3        1           0.1773
      3 C3         25.0041    16.3992    63.7871 C.3        1          -0.1655
      4 C4         23.6004    18.1166    62.6371 C.3        1          -0.1412
      5 N1         22.7921    15.8253    62.9160 N.pl3      1          -0.3769
      6 N2         21.4996    16.3278    63.0881 N.2        1          -0.2711
      7 C5         20.6680    15.3328    63.2889 C.2        1           0.1726
      8 C6         21.4562    14.0954    63.2475 C.2        1          -0.3623
      9 C7         20.9572    12.7276    63.4199 C.2        1           0.6083
     10 N3         20.5447    12.0208    62.3489 N.am       1          -0.8472
     11 O1         20.9153    12.2304    64.5299 O.2        1          -0.5371
     12 C8         22.7719    14.4809    63.0056 C.2        1           0.4198
     13 N4         23.8586    13.6392    62.8824 N.pl3      1          -0.8428
     14 C9         19.2069    15.4388    63.5159 C.ar       1          -0.0570
     15 C10        18.3794    16.0177    62.5396 C.ar       1           0.1622
     16 N5         17.0868    16.1240    62.7128 N.ar       1          -0.4587
     17 C11        16.4890    15.6871    63.8269 C.ar       1           0.1258
     18 C12        15.0987    15.8097    63.9944 C.ar       1          -0.0303
     19 C13        14.5126    15.3575    65.1366 C.ar       1          -0.1587
     20 C14        15.2684    14.7717    66.1500 C.ar       1          -0.0871
     21 C15        16.6171    14.6352    66.0247 C.ar       1          -0.0822
     22 C16        17.2560    15.0908    64.8590 C.ar       1          -0.0845
     23 C17        18.6459    14.9618    64.6916 C.ar       1          -0.0264
     24 C18        13.0215    15.4933    65.3081 C.3        1           0.5086
     25 F1         12.4755    16.1056    64.1750 F          1          -0.1731
     26 F2         12.4537    14.2252    65.4723 F          1          -0.1736
     27 F3         12.7511    16.2749    66.4365 F          1          -0.1735
     28 H1         23.8784    16.4102    60.5297 H          1           0.0613
     29 H2         25.4921    16.8446    61.1425 H          1           0.0713
     30 H3         24.8785    15.1867    61.3489 H          1           0.0857
     31 H4         24.5649    16.6809    64.7440 H          1           0.0857
     32 H5         25.2792    15.3447    63.8100 H          1           0.0705
     33 H6         25.8929    17.0028    63.6036 H          1           0.0610
     34 H7         23.1612    18.3985    63.5940 H          1           0.0712
     35 H8         24.4894    18.7202    62.4536 H          1           0.0706
     36 H9         22.8757    18.2858    61.8407 H          1           0.0747
     37 H10        20.5782    12.4171    61.4642 H          1           0.4019
     38 H11        20.2147    11.1158    62.4630 H          1           0.4024
     39 H12        24.7404    14.0070    62.7149 H          1           0.4048
     40 H13        23.7406    12.6799    62.9632 H          1           0.4181
     41 H14        18.8205    16.3842    61.6245 H          1           0.1722
     42 H15        14.4975    16.2616    63.2193 H          1           0.1521
     43 H16        14.7781    14.4217    67.0463 H          1           0.1427
     44 H17        17.1929    14.1799    66.8170 H          1           0.1449
     45 H18        19.2587    14.5086    65.4567 H          1           0.1512
@<TRIPOS>BOND
     1    1    2 1
     2    1   28 1
     3    1   29 1
     4    1   30 1
     5    2    3 1
     6    2    4 1
     7    2    5 1
     8    3   31 1
     9    3   32 1
    10    3   33 1
    11    4   34 1
    12    4   35 1
    13    4   36 1
    14    5   12 1
    15    5    6 1
    16    6    7 2
    17    7    8 1
    18    7   14 1
    19    8    9 1
    20    8   12 2
    21    9   10 am
    22    9   11 2
    23   10   37 1
    24   10   38 1
    25   12   13 1
    26   13   39 1
    27   13   40 1
    28   14   23 ar
    29   14   15 ar
    30   15   16 ar
    31   15   41 1
    32   16   17 ar
    33   17   22 ar
    34   17   18 ar
    35   18   19 ar
    36   18   42 1
    37   19   20 ar
    38   19   24 1
    39   20   21 ar
    40   20   43 1
    41   21   22 ar
    42   21   44 1
    43   22   23 ar
    44   23   45 1
    45   24   25 1
    46   24   26 1
    47   24   27 1
##########                 Name:                 1555
##########          Protonation:                  100
##########               SMILES:   CC(C)(C)n1c(c(c(n1)c2cc3ccc(cc3nc2)C(F)(F)F)C(=O)N)N
##########            Long Name:   -amino-1-tert-butyl-3-[7-(trifluoromethyl)-3-quinolyl]pyrazole-4-carboxamide
##########          FlexRecCode: 1
##########               Number:                  176
##########   Ligand Source File: /raid1/people/rgc/Examples/tdt/part3/ligand22set/build/ligand22set-0000001.db2.g
##########           GlobalRank: 21
##########                 Rank:                    5
##########               Setnum:                   10
##########             Matchnum:                21275
##########                Cloud:                    1
##########        Electrostatic:            -7.887325
##########        Van der Waals:           -19.549671
##########  Ligand Polar Desolv:             6.723386
########## Ligand Apolar Desolv:            -2.002378
##########      Internal Energy:             0.000000
##########      Receptor Energy: 0.0
########## Receptor Desolvation:             0.000000
########## Receptor Hydrophobic:             0.000000
##########         Total Energy: -22.72
##########        Ligand Charge:             0.000000
##########            Arbitrary:    +999.9990
##########     heavy atom count:   27
##########           pose count:   10
##########        Ligand Energy:             0.000000
# num electro vdwattr vdwrepu polsolv apolsol rdesolv rhydroe totalscore fullpol fullapo
#   1    1.12   -0.71    0.11   -0.22   -0.06    0.00    0.00       0.25   -0.64   -0.17
#   2   -0.85   -0.73    0.07    0.17   -0.04    0.00    0.00      -1.38    0.49   -0.12
#   3    0.60   -2.40    2.57   -0.32   -0.06    0.00    0.00       0.39   -0.87   -0.17
#   4    1.03   -0.77    0.07   -0.14   -0.06    0.00    0.00       0.13   -0.36   -0.16
#   5    0.52   -1.40    0.33    0.04    0.38    0.00    0.00      -0.13    0.09    0.94
#   6   -0.59   -1.50    0.28    0.33    0.46    0.00    0.00      -1.02    0.76    1.08
#   7    0.88   -1.63    0.44   -0.27   -0.38    0.00    0.00      -0.96   -0.54   -0.77
#   8   -0.91   -2.04    1.15    0.65   -0.24    0.00    0.00      -1.39    1.15   -0.42
#   9    2.25   -2.74    0.66   -1.42   -0.34    0.00    0.00      -1.59   -2.23   -0.53
#  10   -3.42   -5.03    4.28   -0.36    1.30    0.00    0.00      -3.25   -0.55    1.96
#  11   -1.65   -4.07    2.01    3.49    0.27    0.00    0.00       0.06    5.22    0.41
#  12   -0.27   -1.97    1.09   -0.08   -0.92    0.00    0.00      -2.15   -0.17   -1.98
#  13    3.91   -2.75    1.90   -1.29    0.40    0.00    0.00       2.17   -2.69    0.83
#  14   -0.60   -1.73    0.25    0.13   -0.22    0.00    0.00      -2.16    0.24   -0.40
#  15    1.89   -3.39    2.40   -0.51   -0.50    0.00    0.00      -0.11   -0.92   -0.91
#  16   -5.92   -4.51    3.70    2.05    1.18    0.00    0.00      -3.49    3.43    1.98
#  17    1.81   -2.90    0.99   -0.25   -0.43    0.00    0.00      -0.79   -0.43   -0.73
#  18   -0.36   -3.33    1.71    0.13   -0.26    0.00    0.00      -2.13    0.21   -0.44
#  19   -1.79   -2.89    2.60    0.15   -0.24    0.00    0.00      -2.17    0.24   -0.38
#  20   -0.67   -3.23    1.83   -0.08   -0.28    0.00    0.00      -2.43   -0.13   -0.44
#  21   -0.55   -3.05    1.20   -0.10   -0.30    0.00    0.00      -2.79   -0.15   -0.46
#  22   -0.99   -2.39    0.85    0.08   -0.25    0.00    0.00      -2.70    0.12   -0.40
#  23   -0.26   -1.91    0.33    0.00   -0.26    0.00    0.00      -2.11    0.00   -0.45
#  24    4.93   -1.42    0.33   -0.77   -0.05    0.00    0.00       3.03   -1.18   -0.07
#  25   -1.48   -1.68    0.69    0.34   -0.30    0.00    0.00      -2.42    0.55   -0.48
#  26   -1.37   -1.47    0.70    0.19   -0.28    0.00    0.00      -2.23    0.30   -0.45
#  27   -1.87   -1.49    0.38    0.47   -0.30    0.00    0.00      -2.82    0.70   -0.45
#  28   -0.57   -0.42    0.23    0.10   -0.06    0.00    0.00      -0.71    0.34   -0.20
#  29   -0.50   -0.13    0.00    0.00   -0.04    0.00    0.00      -0.66    0.03   -0.28
#  30   -0.43   -0.23    0.03    0.22   -0.08    0.00    0.00      -0.48    0.81   -0.28
#  31    0.03   -2.20   10.69    0.41   -0.12    0.00    0.00       8.80    0.93   -0.28
#  32   -0.13   -0.45    0.18    0.06   -0.08    0.00    0.00      -0.42    0.22   -0.28
#  33   -0.54   -1.30    5.22    0.14   -0.06    0.00    0.00       3.45    0.49   -0.20
#  34   -0.31   -0.38    0.05    0.00   -0.11    0.00    0.00      -0.75    0.00   -0.28
#  35   -0.62   -0.22    0.03    0.02   -0.05    0.00    0.00      -0.85    0.10   -0.28
#  36   -0.76   -0.16    0.01    0.11   -0.05    0.00    0.00      -0.87    0.59   -0.28
#  37    2.16   -0.12    0.03    0.79    0.33    0.00    0.00       3.19    1.40    0.59
#  38    0.29   -0.15    0.02    0.44    0.40    0.00    0.00       0.98    0.66    0.60
#  39   -2.08   -0.02    0.00    0.76    0.10    0.00    0.00      -1.24    2.47    0.32
#  40   -3.32   -0.13    0.04    0.74    0.28    0.00    0.00      -2.39    1.56    0.58
#  41    0.94   -0.90    1.18   -0.56   -0.10    0.00    0.00       0.55   -1.16   -0.21
#  42    0.75   -1.27    2.27   -0.34   -0.15    0.00    0.00       1.26   -0.60   -0.27
#  43    0.59   -0.69    0.20    0.40   -0.15    0.00    0.00       0.36    0.72   -0.27
#  44    0.15   -0.68    0.22    0.82   -0.17    0.00    0.00       0.34    1.36   -0.28
#  45    1.10   -0.49    0.18    0.21   -0.12    0.00    0.00       0.88    0.49   -0.28

@<TRIPOS>MOLECULE
             1555       100
   45    47     0     0     0



@<TRIPOS>ATOM
      1 C1         24.6032    16.2411    61.3260 C.3        1          -0.1675
      2 C2         23.9867    16.6366    62.6693 C.3        1           0.1773
      3 C3         25.0041    16.3992    63.7871 C.3        1          -0.1655
      4 C4         23.6004    18.1166    62.6371 C.3        1          -0.1412
      5 N1         22.7921    15.8253    62.9160 N.pl3      1          -0.3769
      6 N2         21.4996    16.3278    63.0881 N.2        1          -0.2711
      7 C5         20.6680    15.3328    63.2889 C.2        1           0.1726
      8 C6         21.4562    14.0954    63.2475 C.2        1          -0.3623
      9 C7         20.9572    12.7276    63.4199 C.2        1           0.6083
     10 N3         20.9109    12.1771    64.6493 N.am       1          -0.8472
     11 O1         20.5848    12.0893    62.4530 O.2        1          -0.5371
     12 C8         22.7719    14.4809    63.0056 C.2        1           0.4198
     13 N4         23.8586    13.6392    62.8824 N.pl3      1          -0.8428
     14 C9         19.2069    15.4388    63.5159 C.ar       1          -0.0570
     15 C10        18.3794    16.0177    62.5396 C.ar       1           0.1622
     16 N5         17.0868    16.1240    62.7128 N.ar       1          -0.4587
     17 C11        16.4890    15.6871    63.8269 C.ar       1           0.1258
     18 C12        15.0987    15.8097    63.9944 C.ar       1          -0.0303
     19 C13        14.5126    15.3575    65.1366 C.ar       1          -0.1587
     20 C14        15.2684    14.7717    66.1500 C.ar       1          -0.0871
     21 C15        16.6171    14.6352    66.0247 C.ar       1          -0.0822
     22 C16        17.2560    15.0908    64.8590 C.ar       1          -0.0845
     23 C17        18.6459    14.9618    64.6916 C.ar       1          -0.0264
     24 C18        13.0215    15.4933    65.3081 C.3        1           0.5086
     25 F1         12.4755    16.1056    64.1750 F          1          -0.1731
     26 F2         12.4537    14.2252    65.4723 F          1          -0.1736
     27 F3         12.7511    16.2749    66.4365 F          1          -0.1735
     28 H1         23.8784    16.4102    60.5297 H          1           0.0613
     29 H2         25.4921    16.8446    61.1425 H          1           0.0713
     30 H3         24.8785    15.1867    61.3489 H          1           0.0857
     31 H4         24.5649    16.6809    64.7440 H          1           0.0857
     32 H5         25.2792    15.3447    63.8100 H          1           0.0705
     33 H6         25.8929    17.0028    63.6036 H          1           0.0610
     34 H7         23.1612    18.3985    63.5940 H          1           0.0712
     35 H8         24.4894    18.7202    62.4536 H          1           0.0706
     36 H9         22.8757    18.2858    61.8407 H          1           0.0747
     37 H10        21.2076    12.6858    65.4200 H          1           0.4019
     38 H11        20.5806    11.2722    64.7633 H          1           0.4024
     39 H12        24.7404    14.0070    62.7149 H          1           0.4048
     40 H13        23.7406    12.6799    62.9632 H          1           0.4181
     41 H14        18.8205    16.3842    61.6245 H          1           0.1722
     42 H15        14.4975    16.2616    63.2193 H          1           0.1521
     43 H16        14.7781    14.4217    67.0463 H          1           0.1427
     44 H17        17.1929    14.1799    66.8170 H          1           0.1449
     45 H18        19.2587    14.5086    65.4567 H          1           0.1512
@<TRIPOS>BOND
     1    1    2 1
     2    1   28 1
     3    1   29 1
     4    1   30 1
     5    2    3 1
     6    2    4 1
     7    2    5 1
     8    3   31 1
     9    3   32 1
    10    3   33 1
    11    4   34 1
    12    4   35 1
    13    4   36 1
    14    5   12 1
    15    5    6 1
    16    6    7 2
    17    7    8 1
    18    7   14 1
    19    8    9 1
    20    8   12 2
    21    9   10 am
    22    9   11 2
    23   10   37 1
    24   10   38 1
    25   12   13 1
    26   13   39 1
    27   13   40 1
    28   14   23 ar
    29   14   15 ar
    30   15   16 ar
    31   15   41 1
    32   16   17 ar
    33   17   22 ar
    34   17   18 ar
    35   18   19 ar
    36   18   42 1
    37   19   20 ar
    38   19   24 1
    39   20   21 ar
    40   20   43 1
    41   21   22 ar
    42   21   44 1
    43   22   23 ar
    44   23   45 1
    45   24   25 1
    46   24   26 1
    47   24   27 1
##########                 Name:                 1570
##########          Protonation:                  100
##########               SMILES:   CC(C)(C)n1c(c(c(n1)c2cc3ccc(cc3nc2)OCCOC)C(=O)N)N
##########            Long Name:   -amino-1-tert-butyl-3-[7-(2-methoxyethoxy)-3-quinolyl]pyrazole-4-carboxamide
##########          FlexRecCode: 1
##########               Number:                  204
##########   Ligand Source File: /raid1/people/rgc/Examples/tdt/part3/ligand22set/build/ligand22set-0000001.db2.g
##########           GlobalRank: 18
##########                 Rank:                    1
##########               Setnum:                  281
##########             Matchnum:                 1041
##########                Cloud:                    1
##########        Electrostatic:            -8.465740
##########        Van der Waals:           -33.666451
##########  Ligand Polar Desolv:            10.162173
########## Ligand Apolar Desolv:            -1.045465
##########      Internal Energy:             0.000000
##########      Receptor Energy: 0.0
########## Receptor Desolvation:             0.000000
########## Receptor Hydrophobic:             0.000000
##########         Total Energy: -33.02
##########        Ligand Charge:             0.000000
##########            Arbitrary:    +999.9990
##########     heavy atom count:   28
##########           pose count:   10
##########        Ligand Energy:             0.000000
# num electro vdwattr vdwrepu polsolv apolsol rdesolv rhydroe totalscore fullpol fullapo
#   1    0.14   -1.46    0.26    0.00    0.02    0.00    0.00      -1.04    0.00    0.03
#   2   -1.60   -1.90    0.51    0.79    0.82    0.00    0.00      -1.37    1.22    1.27
#   3    0.41   -1.46    0.44    0.03   -0.08    0.00    0.00      -0.65    0.05   -0.13
#   4    0.40   -1.48    0.39    0.04   -0.06    0.00    0.00      -0.71    0.06   -0.10
#   5   -2.60   -2.22    0.73    0.85    0.52    0.00    0.00      -2.72    1.29    0.79
#   6    1.55   -2.25    0.66   -0.41   -0.20    0.00    0.00      -0.65   -0.63   -0.31
#   7   -1.23   -2.82    0.91    0.96   -0.30    0.00    0.00      -2.49    1.50   -0.47
#   8    1.68   -2.76    1.02   -0.70   -0.48    0.00    0.00      -1.24   -1.08   -0.73
#   9   -2.44   -3.06    0.68    3.49    1.30    0.00    0.00      -0.03    5.31    1.98
#  10    1.23   -2.78    0.71   -0.87   -0.57    0.00    0.00      -2.28   -1.39   -0.91
#  11   -0.99   -1.95    0.33    0.35   -0.24    0.00    0.00      -2.51    0.59   -0.40
#  12   -0.12   -2.35    0.61   -0.02   -0.27    0.00    0.00      -2.16   -0.04   -0.45
#  13   -1.88   -2.79    1.30    0.32   -0.24    0.00    0.00      -3.29    0.54   -0.40
#  14   -0.52   -3.75    2.28   -0.02   -0.28    0.00    0.00      -2.29   -0.04   -0.46
#  15   -1.95   -2.83    1.10   -0.09   -0.26    0.00    0.00      -4.03   -0.14   -0.43
#  16    1.61   -1.88    0.50   -0.45   -0.41    0.00    0.00      -0.62   -0.84   -0.77
#  17   -2.61   -2.30    0.95    0.57    0.51    0.00    0.00      -2.87    1.20    1.08
#  18   -1.02   -1.59    0.30    0.22    0.41    0.00    0.00      -1.68    0.50    0.94
#  19    1.09   -1.75    0.42   -0.34   -1.01    0.00    0.00      -1.60   -0.66   -1.98
#  20    0.35   -2.13    0.53   -0.97    0.42    0.00    0.00      -1.80   -1.92    0.83
#  21   -1.76   -1.88    0.39    1.06   -0.25    0.00    0.00      -2.44    1.78   -0.42
#  22    1.86   -3.63    2.86   -2.08   -0.34    0.00    0.00      -1.33   -3.21   -0.53
#  23    1.03   -5.97    7.39    0.43    1.25    0.00    0.00       4.14    0.68    1.96
#  24   -3.28   -5.72    4.57    4.20    0.28    0.00    0.00       0.06    6.24    0.42
#  25   -0.41   -0.82    0.09    0.15   -0.05    0.00    0.00      -1.05    0.36   -0.12
#  26    0.64   -1.03    0.15   -0.11   -0.07    0.00    0.00      -0.43   -0.26   -0.16
#  27    0.33   -1.82    1.05   -0.31   -0.07    0.00    0.00      -0.83   -0.77   -0.17
#  28    1.06   -1.31    1.26   -0.19   -0.06    0.00    0.00       0.76   -0.54   -0.17
#  29    0.16   -0.48    0.12    0.08   -0.14    0.00    0.00      -0.26    0.16   -0.28
#  30    0.26   -0.44    0.06    0.01   -0.14    0.00    0.00      -0.24    0.02   -0.28
#  31    0.40   -0.53    0.13    0.01   -0.14    0.00    0.00      -0.13    0.02   -0.28
#  32    0.44   -0.71    0.42    0.02   -0.15    0.00    0.00       0.02    0.03   -0.28
#  33    0.65   -0.82    2.00    0.21   -0.12    0.00    0.00       1.92    0.52   -0.28
#  34    0.55   -0.64    0.37    0.32   -0.14    0.00    0.00       0.46    0.63   -0.27
#  35    0.42   -0.55    0.32    0.12   -0.14    0.00    0.00       0.17    0.23   -0.27
#  36    0.74   -0.77    0.28   -0.63   -0.16    0.00    0.00      -0.54   -1.10   -0.28
#  37    0.98   -1.00    1.20   -0.86   -0.12    0.00    0.00       0.19   -1.49   -0.21
#  38    2.00   -0.56    0.17    0.07   -0.14    0.00    0.00       1.54    0.13   -0.28
#  39    0.55   -1.56    3.06    0.67   -0.17    0.00    0.00       2.56    1.11   -0.28
#  40    1.11   -0.69    0.26    0.50   -0.11    0.00    0.00       1.07    0.96   -0.22
#  41   -1.12   -0.02    0.00    0.69    0.10    0.00    0.00      -0.35    2.14    0.32
#  42    0.07   -0.05    0.00    0.55    0.28    0.00    0.00       0.85    1.15    0.58
#  43    0.72   -0.06    0.00    0.41    0.31    0.00    0.00       1.37    0.78    0.59
#  44   -4.36   -0.23    0.09    0.04    0.41    0.00    0.00      -4.05    0.06    0.60
#  45   -0.65   -0.23    0.01    0.01   -0.08    0.00    0.00      -0.93    0.05   -0.28
#  46   -0.38   -0.31    0.08    0.15   -0.08    0.00    0.00      -0.54    0.53   -0.28
#  47   -0.08   -0.66    0.42   -0.01   -0.13    0.00    0.00      -0.46   -0.03   -0.28
#  48   -0.39   -0.58    0.46    0.12   -0.06    0.00    0.00      -0.44    0.43   -0.20
#  49    0.13   -1.27    2.24    0.42   -0.13    0.00    0.00       1.38    0.88   -0.28
#  50   -0.07   -0.48    0.24    0.06   -0.09    0.00    0.00      -0.35    0.18   -0.28
#  51   -0.66   -0.19    0.02    0.00   -0.05    0.00    0.00      -0.88    0.00   -0.28
#  52   -0.42   -0.50    0.62    0.21   -0.08    0.00    0.00      -0.16    0.75   -0.28
#  53   -0.46   -1.01    3.36    0.09   -0.07    0.00    0.00       1.92    0.29   -0.20

@<TRIPOS>MOLECULE
             1570       100
   53    55     0     0     0



@<TRIPOS>ATOM
      1 C1         10.4104    12.2648    62.9365 C.3        1           0.0304
      2 O1         10.3049    13.5084    63.6326 O.3        1          -0.3852
      3 C2         11.3733    13.7539    64.5493 C.3        1           0.0610
      4 C3         11.1579    15.1052    65.2335 C.3        1           0.0586
      5 O2         12.2263    15.3507    66.1502 O.3        1          -0.3012
      6 C4         13.4821    15.3986    65.6349 C.ar       1           0.1539
      7 C5         14.5505    15.0095    66.4108 C.ar       1          -0.1441
      8 C6         15.8492    15.0584    65.8796 C.ar       1           0.1722
      9 N1         16.9036    14.6849    66.6142 N.ar       1          -0.4745
     10 C7         18.1218    14.7229    66.1370 C.ar       1           0.1717
     11 C8         18.3848    15.1581    64.8283 C.ar       1          -0.0890
     12 C9         17.3330    15.5586    64.0163 C.ar       1          -0.0086
     13 C10        16.0331    15.5101    64.5478 C.ar       1          -0.1370
     14 C11        14.9207    15.9001    63.7826 C.ar       1          -0.0474
     15 C12        13.6734    15.8371    64.3207 C.ar       1          -0.1928
     16 C13        19.7762    15.1898    64.3176 C.2        1           0.1821
     17 N2         20.4271    16.2478    63.8947 N.2        1          -0.2772
     18 N3         21.7126    15.8732    63.4951 N.pl3      1          -0.3790
     19 C14        21.8742    14.5471    63.6712 C.2        1           0.4180
     20 N4         23.0120    13.8197    63.3875 N.pl3      1          -0.8439
     21 C15        20.6864    14.0450    64.1963 C.2        1          -0.3644
     22 C16        20.4015    12.6520    64.5539 C.2        1           0.6095
     23 N5         19.1949    12.3176    65.0525 N.am       1          -0.8475
     24 O3         21.2547    11.7977    64.4003 O.2        1          -0.5385
     25 C17        22.7301    16.7840    62.9646 C.3        1           0.1780
     26 C18        22.1668    18.2058    62.9165 C.3        1          -0.1405
     27 C19        23.9631    16.7543    63.8700 C.3        1          -0.1653
     28 C20        23.1230    16.3431    61.5532 C.3        1          -0.1671
     29 H1          9.5624    12.1536    62.2608 H          1           0.0422
     30 H2         11.3369    12.2470    62.3626 H          1           0.0438
     31 H3         10.4124    11.4453    63.6551 H          1           0.0887
     32 H4         11.3952    12.9653    65.3013 H          1           0.0633
     33 H5         12.3199    13.7671    64.0088 H          1           0.0736
     34 H6         11.1360    15.8939    64.4814 H          1           0.0810
     35 H7         10.2113    15.0921    65.7739 H          1           0.0745
     36 H8         14.3906    14.6688    67.4230 H          1           0.1451
     37 H9         18.9439    14.4125    66.7648 H          1           0.1672
     38 H10        17.5084    15.8979    63.0060 H          1           0.1446
     39 H11        15.0557    16.2447    62.7679 H          1           0.1369
     40 H12        12.8208    16.1336    63.7278 H          1           0.1355
     41 H13        23.7942    14.2645    63.0253 H          1           0.4040
     42 H14        23.0296    12.8637    63.5502 H          1           0.4174
     43 H15        18.5150    12.9985    65.1749 H          1           0.4015
     44 H16        19.0064    11.3959    65.2890 H          1           0.4017
     45 H17        22.9238    18.8833    62.5218 H          1           0.0703
     46 H18        21.2884    18.2269    62.2715 H          1           0.0736
     47 H19        21.8868    18.5199    63.9220 H          1           0.0710
     48 H20        24.7201    17.4319    63.4753 H          1           0.0608
     49 H21        23.6832    17.0683    64.8755 H          1           0.0847
     50 H22        24.3644    15.7414    63.9040 H          1           0.0701
     51 H23        23.8800    17.0207    61.1584 H          1           0.0710
     52 H24        23.5243    15.3303    61.5875 H          1           0.0847
     53 H25        22.2446    16.3642    60.9081 H          1           0.0611
@<TRIPOS>BOND
     1    1    2 1
     2    1   29 1
     3    1   30 1
     4    1   31 1
     5    2    3 1
     6    3    4 1
     7    3   32 1
     8    3   33 1
     9    4    5 1
    10    4   34 1
    11    4   35 1
    12    5    6 1
    13    6   15 ar
    14    6    7 ar
    15    7    8 ar
    16    7   36 1
    17    8   13 ar
    18    8    9 ar
    19    9   10 ar
    20   10   11 ar
    21   10   37 1
    22   11   12 ar
    23   11   16 1
    24   12   13 ar
    25   12   38 1
    26   13   14 ar
    27   14   15 ar
    28   14   39 1
    29   15   40 1
    30   16   21 1
    31   16   17 2
    32   17   18 1
    33   18   19 1
    34   18   25 1
    35   19   20 1
    36   19   21 2
    37   20   41 1
    38   20   42 1
    39   21   22 1
    40   22   23 am
    41   22   24 2
    42   23   43 1
    43   23   44 1
    44   25   26 1
    45   25   27 1
    46   25   28 1
    47   26   45 1
    48   26   46 1
    49   26   47 1
    50   27   48 1
    51   27   49 1
    52   27   50 1
    53   28   51 1
    54   28   52 1
    55   28   53 1
##########                 Name:                 1570
##########          Protonation:                  100
##########               SMILES:   CC(C)(C)n1c(c(c(n1)c2cc3ccc(cc3nc2)OCCOC)C(=O)N)N
##########            Long Name:   -amino-1-tert-butyl-3-[7-(2-methoxyethoxy)-3-quinolyl]pyrazole-4-carboxamide
##########          FlexRecCode: 1
##########               Number:                  204
##########   Ligand Source File: /raid1/people/rgc/Examples/tdt/part3/ligand22set/build/ligand22set-0000001.db2.g
##########           GlobalRank: 18
##########                 Rank:                    2
##########               Setnum:                  281
##########             Matchnum:                 1058
##########                Cloud:                    1
##########        Electrostatic:            -8.904185
##########        Van der Waals:           -32.958618
##########  Ligand Polar Desolv:            10.138632
########## Ligand Apolar Desolv:            -1.100426
##########      Internal Energy:             0.000000
##########      Receptor Energy: 0.0
########## Receptor Desolvation:             0.000000
########## Receptor Hydrophobic:             0.000000
##########         Total Energy: -32.82
##########        Ligand Charge:             0.000000
##########            Arbitrary:    +999.9990
##########     heavy atom count:   28
##########           pose count:   10
##########        Ligand Energy:             0.000000
# num electro vdwattr vdwrepu polsolv apolsol rdesolv rhydroe totalscore fullpol fullapo
#   1    0.13   -1.58    0.45    0.00    0.02    0.00    0.00      -0.98    0.00    0.03
#   2   -1.46   -2.15    1.05    0.78    0.81    0.00    0.00      -0.98    1.22    1.27
#   3    0.39   -1.42    0.33    0.03   -0.08    0.00    0.00      -0.75    0.05   -0.13
#   4    0.39   -1.56    0.51    0.04   -0.06    0.00    0.00      -0.69    0.06   -0.10
#   5   -2.55   -2.47    1.15    0.85    0.52    0.00    0.00      -2.50    1.29    0.79
#   6    1.52   -2.21    0.56   -0.41   -0.20    0.00    0.00      -0.75   -0.63   -0.31
#   7   -1.24   -2.79    0.87    0.97   -0.30    0.00    0.00      -2.50    1.50   -0.47
#   8    1.72   -2.78    1.13   -0.70   -0.47    0.00    0.00      -1.11   -1.08   -0.73
#   9   -2.62   -3.01    0.68    3.48    1.30    0.00    0.00      -0.17    5.31    1.98
#  10    1.29   -2.62    0.56   -0.87   -0.57    0.00    0.00      -2.20   -1.39   -0.91
#  11   -1.04   -1.95    0.32    0.36   -0.24    0.00    0.00      -2.55    0.59   -0.40
#  12   -0.13   -2.50    0.70   -0.02   -0.27    0.00    0.00      -2.21   -0.04   -0.45
#  13   -1.86   -2.87    1.48    0.32   -0.24    0.00    0.00      -3.17    0.54   -0.40
#  14   -0.49   -3.83    2.51   -0.02   -0.27    0.00    0.00      -2.11   -0.04   -0.46
#  15   -1.91   -2.75    0.99   -0.09   -0.27    0.00    0.00      -4.02   -0.14   -0.43
#  16    1.73   -1.77    0.34   -0.45   -0.42    0.00    0.00      -0.57   -0.84   -0.77
#  17   -2.99   -2.24    0.85    0.58    0.52    0.00    0.00      -3.28    1.20    1.08
#  18   -1.13   -1.55    0.31    0.22    0.41    0.00    0.00      -1.74    0.50    0.94
#  19    1.10   -1.74    0.57   -0.34   -1.03    0.00    0.00      -1.44   -0.66   -1.98
#  20    0.36   -2.12    0.71   -0.96    0.42    0.00    0.00      -1.60   -1.92    0.83
#  21   -1.80   -1.75    0.28    1.06   -0.25    0.00    0.00      -2.46    1.78   -0.42
#  22    1.71   -3.19    1.63   -2.07   -0.34    0.00    0.00      -2.27   -3.21   -0.53
#  23    0.84   -5.62    5.47    0.43    1.25    0.00    0.00       2.37    0.68    1.96
#  24   -2.76   -4.83    2.78    4.20    0.28    0.00    0.00      -0.33    6.24    0.42
#  25   -0.46   -0.81    0.10    0.15   -0.05    0.00    0.00      -1.07    0.36   -0.12
#  26    0.70   -1.06    0.19   -0.11   -0.07    0.00    0.00      -0.35   -0.26   -0.16
#  27    0.41   -1.30    0.36   -0.31   -0.07    0.00    0.00      -0.91   -0.77   -0.17
#  28    1.17   -1.76    2.76   -0.19   -0.06    0.00    0.00       1.91   -0.54   -0.17
#  29    0.14   -0.59    0.31    0.08   -0.14    0.00    0.00      -0.19    0.16   -0.28
#  30    0.24   -0.40    0.04    0.01   -0.14    0.00    0.00      -0.24    0.02   -0.28
#  31    0.41   -0.58    0.19    0.01   -0.15    0.00    0.00      -0.11    0.02   -0.28
#  32    0.43   -0.77    0.61    0.02   -0.15    0.00    0.00       0.13    0.03   -0.28
#  33    0.61   -0.63    0.85    0.21   -0.11    0.00    0.00       0.93    0.52   -0.28
#  34    0.52   -0.67    0.47    0.32   -0.14    0.00    0.00       0.51    0.63   -0.27
#  35    0.41   -0.61    0.48    0.12   -0.14    0.00    0.00       0.26    0.23   -0.27
#  36    0.78   -0.79    0.33   -0.64   -0.16    0.00    0.00      -0.49   -1.10   -0.28
#  37    0.98   -0.83    0.66   -0.84   -0.12    0.00    0.00      -0.16   -1.49   -0.21
#  38    1.95   -0.62    0.23    0.07   -0.15    0.00    0.00       1.48    0.13   -0.28
#  39    0.37   -1.81    4.92    0.67   -0.17    0.00    0.00       3.98    1.11   -0.28
#  40    1.12   -0.67    0.27    0.50   -0.11    0.00    0.00       1.10    0.96   -0.22
#  41   -1.17   -0.02    0.00    0.68    0.10    0.00    0.00      -0.41    2.14    0.32
#  42    0.09   -0.04    0.00    0.55    0.28    0.00    0.00       0.88    1.15    0.58
#  43    0.94   -0.07    0.00    0.40    0.30    0.00    0.00       1.58    0.78    0.59
#  44   -4.38   -0.22    0.08    0.04    0.41    0.00    0.00      -4.08    0.06    0.60
#  45   -0.74   -0.23    0.01    0.01   -0.07    0.00    0.00      -1.01    0.05   -0.28
#  46   -0.41   -0.38    0.19    0.16   -0.09    0.00    0.00      -0.52    0.53   -0.28
#  47   -0.10   -0.64    0.38   -0.01   -0.13    0.00    0.00      -0.50   -0.03   -0.28
#  48   -0.38   -0.36    0.12    0.11   -0.05    0.00    0.00      -0.56    0.43   -0.20
#  49    0.05   -0.82    0.57    0.39   -0.13    0.00    0.00       0.07    0.88   -0.28
#  50   -0.11   -0.34    0.08    0.05   -0.08    0.00    0.00      -0.40    0.18   -0.28
#  51   -0.75   -0.24    0.05    0.00   -0.06    0.00    0.00      -1.01    0.00   -0.28
#  52   -0.44   -0.87    2.63    0.23   -0.09    0.00    0.00       1.46    0.75   -0.28
#  53   -0.50   -1.21    4.58    0.11   -0.07    0.00    0.00       2.90    0.29   -0.20

@<TRIPOS>MOLECULE
             1570       100
   53    55     0     0     0



@<TRIPOS>ATOM
      1 C1         10.1817    12.2436    63.0798 C.3        1           0.0304
      2 O1         10.0870    13.4855    63.7806 O.3        1          -0.3852
      3 C2         11.1813    13.7395    64.6637 C.3        1           0.0610
      4 C3         10.9754    15.0881    65.3562 C.3        1           0.0586
      5 O2         12.0698    15.3421    66.2393 O.3        1          -0.3012
      6 C4         13.3083    15.4018    65.6850 C.ar       1           0.1539
      7 C5         14.4039    15.0215    66.4265 C.ar       1          -0.1441
      8 C6         15.6848    15.0826    65.8550 C.ar       1           0.1722
      9 N1         16.7651    14.7178    66.5556 N.ar       1          -0.4745
     10 C7         17.9673    14.7673    66.0406 C.ar       1           0.1717
     11 C8         18.1853    15.2062    64.7249 C.ar       1          -0.0890
     12 C9         17.1051    15.5982    63.9468 C.ar       1          -0.0086
     13 C10        15.8229    15.5375    64.5187 C.ar       1          -0.1370
     14 C11        14.6836    15.9183    63.7892 C.ar       1          -0.0474
     15 C12        13.4544    15.8435    64.3661 C.ar       1          -0.1928
     16 C13        19.5596    15.2510    64.1710 C.2        1           0.1821
     17 N2         20.1875    16.3153    63.7293 N.2        1          -0.2772
     18 N3         21.4632    15.9526    63.2892 N.pl3      1          -0.3790
     19 C14        21.6420    14.6279    63.4582 C.2        1           0.4180
     20 N4         22.7769    13.9110    63.1381 N.pl3      1          -0.8439
     21 C15        20.4758    14.1145    64.0196 C.2        1          -0.3644
     22 C16        20.2147    12.7187    64.3839 C.2        1           0.6095
     23 N5         19.0274    12.3729    64.9196 N.am       1          -0.8475
     24 O3         21.0703    11.8722    64.2026 O.2        1          -0.5385
     25 C17        22.4553    16.8732    62.7283 C.3        1           0.1780
     26 C18        21.8781    18.2899    62.6998 C.3        1          -0.1405
     27 C19        23.7163    16.8535    63.5945 C.3        1          -0.1653
     28 C20        22.8077    16.4374    61.3046 C.3        1          -0.1671
     29 H1          9.3140    12.1255    62.4308 H          1           0.0422
     30 H2         11.0899    12.2348    62.4771 H          1           0.0438
     31 H3         10.2135    11.4233    63.7969 H          1           0.0887
     32 H4         11.2338    12.9503    65.4135 H          1           0.0633
     33 H5         12.1103    13.7618    64.0939 H          1           0.0736
     34 H6         10.9229    15.8774    64.6062 H          1           0.0810
     35 H7         10.0464    15.0659    65.9259 H          1           0.0745
     36 H8         14.2789    14.6783    67.4428 H          1           0.1451
     37 H9         18.8114    14.4636    66.6419 H          1           0.1672
     38 H10        17.2457    15.9402    62.9320 H          1           0.1446
     39 H11        14.7837    16.2652    62.7713 H          1           0.1369
     40 H12        12.5810    16.1330    63.8006 H          1           0.1355
     41 H13        23.5433    14.3633    62.7522 H          1           0.4040
     42 H14        22.8081    12.9550    63.2987 H          1           0.4174
     43 H15        18.3456    13.0475    65.0642 H          1           0.4015
     44 H16        18.8546    11.4493    65.1607 H          1           0.4017
     45 H17        22.6164    18.9746    62.2826 H          1           0.0703
     46 H18        20.9798    18.3038    62.0826 H          1           0.0736
     47 H19        21.6270    18.6003    63.7141 H          1           0.0710
     48 H20        24.4545    17.5383    63.1773 H          1           0.0608
     49 H21        23.4653    17.1638    64.6088 H          1           0.0847
     50 H22        24.1275    15.8442    63.6146 H          1           0.0701
     51 H23        23.5460    17.1222    60.8873 H          1           0.0710
     52 H24        23.2189    15.4282    61.3249 H          1           0.0847
     53 H25        21.9094    16.4513    60.6874 H          1           0.0611
@<TRIPOS>BOND
     1    1    2 1
     2    1   29 1
     3    1   30 1
     4    1   31 1
     5    2    3 1
     6    3    4 1
     7    3   32 1
     8    3   33 1
     9    4    5 1
    10    4   34 1
    11    4   35 1
    12    5    6 1
    13    6   15 ar
    14    6    7 ar
    15    7    8 ar
    16    7   36 1
    17    8   13 ar
    18    8    9 ar
    19    9   10 ar
    20   10   11 ar
    21   10   37 1
    22   11   12 ar
    23   11   16 1
    24   12   13 ar
    25   12   38 1
    26   13   14 ar
    27   14   15 ar
    28   14   39 1
    29   15   40 1
    30   16   21 1
    31   16   17 2
    32   17   18 1
    33   18   19 1
    34   18   25 1
    35   19   20 1
    36   19   21 2
    37   20   41 1
    38   20   42 1
    39   21   22 1
    40   22   23 am
    41   22   24 2
    42   23   43 1
    43   23   44 1
    44   25   26 1
    45   25   27 1
    46   25   28 1
    47   26   45 1
    48   26   46 1
    49   26   47 1
    50   27   48 1
    51   27   49 1
    52   27   50 1
    53   28   51 1
    54   28   52 1
    55   28   53 1
##########                 Name:                 1570
##########          Protonation:                  100
##########               SMILES:   CC(C)(C)n1c(c(c(n1)c2cc3ccc(cc3nc2)OCCOC)C(=O)N)N
##########            Long Name:   -amino-1-tert-butyl-3-[7-(2-methoxyethoxy)-3-quinolyl]pyrazole-4-carboxamide
##########          FlexRecCode: 1
##########               Number:                  204
##########   Ligand Source File: /raid1/people/rgc/Examples/tdt/part3/ligand22set/build/ligand22set-0000001.db2.g
##########           GlobalRank: 19
##########                 Rank:                    3
##########               Setnum:                  281
##########             Matchnum:                 1038
##########                Cloud:                    1
##########        Electrostatic:            -9.995665
##########        Van der Waals:           -31.621826
##########  Ligand Polar Desolv:            10.019150
########## Ligand Apolar Desolv:            -0.976084
##########      Internal Energy:             0.000000
##########      Receptor Energy: 0.0
########## Receptor Desolvation:             0.000000
########## Receptor Hydrophobic:             0.000000
##########         Total Energy: -32.57
##########        Ligand Charge:             0.000000
##########            Arbitrary:    +999.9990
##########     heavy atom count:   28
##########           pose count:   10
##########        Ligand Energy:             0.000000
# num electro vdwattr vdwrepu polsolv apolsol rdesolv rhydroe totalscore fullpol fullapo
#   1    0.15   -1.42    0.19    0.00    0.02    0.00    0.00      -1.06    0.00    0.03
#   2   -1.87   -1.73    0.28    0.79    0.83    0.00    0.00      -1.71    1.22    1.27
#   3    0.45   -1.65    1.05    0.03   -0.08    0.00    0.00      -0.20    0.05   -0.13
#   4    0.43   -1.39    0.28    0.04   -0.06    0.00    0.00      -0.70    0.06   -0.10
#   5   -2.73   -1.86    0.33    0.84    0.52    0.00    0.00      -2.90    1.29    0.79
#   6    1.64   -2.37    0.99   -0.41   -0.20    0.00    0.00      -0.35   -0.63   -0.31
#   7   -1.35   -2.77    1.09    0.95   -0.30    0.00    0.00      -2.37    1.50   -0.47
#   8    1.89   -2.66    0.99   -0.71   -0.48    0.00    0.00      -0.98   -1.08   -0.73
#   9   -3.24   -2.69    0.49    3.42    1.27    0.00    0.00      -0.75    5.31    1.98
#  10    1.43   -2.56    0.74   -0.85   -0.55    0.00    0.00      -1.79   -1.39   -0.91
#  11   -1.02   -1.84    0.29    0.34   -0.23    0.00    0.00      -2.46    0.59   -0.40
#  12   -0.12   -2.40    0.60   -0.02   -0.26    0.00    0.00      -2.20   -0.04   -0.45
#  13   -1.96   -2.74    1.02    0.32   -0.24    0.00    0.00      -3.60    0.54   -0.40
#  14   -0.49   -4.29    3.20   -0.02   -0.28    0.00    0.00      -1.89   -0.04   -0.46
#  15   -1.91   -3.30    1.64   -0.08   -0.26    0.00    0.00      -3.90   -0.14   -0.43
#  16    1.46   -1.69    0.33   -0.44   -0.40    0.00    0.00      -0.74   -0.84   -0.77
#  17   -1.97   -1.89    0.49    0.55    0.50    0.00    0.00      -2.31    1.20    1.08
#  18   -0.23   -1.48    0.36    0.21    0.39    0.00    0.00      -0.75    0.50    0.94
#  19    0.42   -1.86    0.97   -0.31   -0.93    0.00    0.00      -1.72   -0.66   -1.98
#  20    2.08   -2.18    0.84   -0.91    0.40    0.00    0.00       0.22   -1.92    0.83
#  21   -1.48   -1.72    0.32    1.04   -0.24    0.00    0.00      -2.09    1.78   -0.42
#  22    2.28   -2.77    0.79   -2.06   -0.34    0.00    0.00      -2.11   -3.21   -0.53
#  23   -0.23   -4.36    3.08    0.44    1.27    0.00    0.00       0.20    0.68    1.96
#  24   -4.10   -5.32    4.46    4.10    0.28    0.00    0.00      -0.58    6.24    0.42
#  25   -0.81   -0.73    0.08    0.14   -0.05    0.00    0.00      -1.37    0.36   -0.12
#  26    1.04   -0.83    0.07   -0.11   -0.07    0.00    0.00       0.11   -0.26   -0.16
#  27    0.69   -1.28    0.44   -0.28   -0.06    0.00    0.00      -0.50   -0.77   -0.17
#  28    1.38   -1.44    1.32   -0.19   -0.06    0.00    0.00       1.01   -0.54   -0.17
#  29    0.18   -0.42    0.06    0.08   -0.14    0.00    0.00      -0.25    0.16   -0.28
#  30    0.30   -0.50    0.10    0.01   -0.15    0.00    0.00      -0.24    0.02   -0.28
#  31    0.38   -0.50    0.09    0.01   -0.14    0.00    0.00      -0.15    0.02   -0.28
#  32    0.45   -0.69    0.41    0.02   -0.14    0.00    0.00       0.04    0.03   -0.28
#  33    0.71   -1.29    6.60    0.22   -0.12    0.00    0.00       6.13    0.52   -0.28
#  34    0.59   -0.61    0.29    0.32   -0.14    0.00    0.00       0.45    0.63   -0.27
#  35    0.45   -0.48    0.18    0.12   -0.14    0.00    0.00       0.14    0.23   -0.27
#  36    0.79   -0.62    0.13   -0.60   -0.15    0.00    0.00      -0.46   -1.10   -0.28
#  37    1.15   -0.95    1.23   -0.79   -0.11    0.00    0.00       0.53   -1.49   -0.21
#  38    1.82   -0.66    0.35    0.07   -0.14    0.00    0.00       1.43    0.13   -0.28
#  39    0.38   -1.90    4.48    0.70   -0.18    0.00    0.00       3.48    1.11   -0.28
#  40    1.01   -0.85    0.47    0.51   -0.12    0.00    0.00       1.02    0.96   -0.22
#  41   -1.69   -0.02    0.00    0.63    0.09    0.00    0.00      -0.99    2.14    0.32
#  42   -1.50   -0.06    0.00    0.52    0.26    0.00    0.00      -0.77    1.15    0.58
#  43    1.14   -0.05    0.00    0.39    0.29    0.00    0.00       1.77    0.78    0.59
#  44   -3.55   -0.18    0.05    0.04    0.39    0.00    0.00      -3.25    0.06    0.60
#  45   -0.82   -0.19    0.01    0.01   -0.06    0.00    0.00      -1.05    0.05   -0.28
#  46   -0.64   -0.24    0.03    0.14   -0.07    0.00    0.00      -0.80    0.53   -0.28
#  47   -0.28   -0.43    0.09   -0.01   -0.12    0.00    0.00      -0.75   -0.03   -0.28
#  48   -0.45   -0.37    0.20    0.09   -0.04    0.00    0.00      -0.58    0.43   -0.20
#  49   -0.12   -0.86    0.70    0.36   -0.12    0.00    0.00      -0.03    0.88   -0.28
#  50   -0.21   -0.30    0.06    0.04   -0.07    0.00    0.00      -0.47    0.18   -0.28
#  51   -0.80   -0.22    0.03    0.00   -0.06    0.00    0.00      -1.05    0.00   -0.28
#  52   -0.51   -0.55    0.66    0.24   -0.09    0.00    0.00      -0.25    0.75   -0.28
#  53   -0.61   -1.07    2.68    0.10   -0.07    0.00    0.00       1.03    0.29   -0.20

@<TRIPOS>MOLECULE
             1570       100
   53    55     0     0     0



@<TRIPOS>ATOM
      1 C1         10.7128    12.3030    62.7362 C.3        1           0.0304
      2 O1         10.6128    13.5425    63.4405 O.3        1          -0.3852
      3 C2         11.7012    13.7943    64.3316 C.3        1           0.0610
      4 C3         11.4900    15.1404    65.0272 C.3        1           0.0586
      5 O2         12.5784    15.3922    65.9182 O.3        1          -0.3012
      6 C4         13.8205    15.4545    65.3722 C.ar       1           0.1539
      7 C5         14.9116    15.0724    66.1194 C.ar       1          -0.1441
      8 C6         16.1961    15.1362    65.5564 C.ar       1           0.1722
      9 N1         17.2720    14.7698    66.2628 N.ar       1          -0.4745
     10 C7         18.4775    14.8217    65.7557 C.ar       1           0.1717
     11 C8         18.7037    15.2652    64.4429 C.ar       1          -0.0890
     12 C9         17.6283    15.6591    63.6592 C.ar       1          -0.0086
     13 C10        16.3425    15.5957    64.2226 C.ar       1          -0.1370
     14 C11        15.2076    15.9783    63.4871 C.ar       1          -0.0474
     15 C12        13.9748    15.9007    64.0557 C.ar       1          -0.1928
     16 C13        20.0816    15.3128    63.8980 C.2        1           0.1821
     17 N2         20.7116    16.3789    63.4640 N.2        1          -0.2772
     18 N3         21.9903    16.0185    63.0309 N.pl3      1          -0.3790
     19 C14        22.1689    14.6934    63.1967 C.2        1           0.4180
     20 N4         23.3063    13.9783    62.8815 N.pl3      1          -0.8439
     21 C15        20.9995    14.1774    63.7488 C.2        1          -0.3644
     22 C16        20.7369    12.7801    64.1068 C.2        1           0.6095
     23 N5         19.5463    12.4318    64.6336 N.am       1          -0.8475
     24 O3         21.5942    11.9348    63.9281 O.2        1          -0.5385
     25 C17        22.9855    16.9416    62.4796 C.3        1           0.1780
     26 C18        22.4075    18.3580    62.4521 C.3        1          -0.1405
     27 C19        24.2408    16.9198    63.3539 C.3        1          -0.1653
     28 C20        23.3473    16.5108    61.0568 C.3        1          -0.1671
     29 H1          9.8494    12.1866    62.0813 H          1           0.0422
     30 H2         11.6249    12.2969    62.1394 H          1           0.0438
     31 H3         10.7405    11.4804    63.4507 H          1           0.0887
     32 H4         11.7494    13.0026    65.0791 H          1           0.0633
     33 H5         12.6339    13.8191    63.7678 H          1           0.0736
     34 H6         11.4418    15.9322    64.2796 H          1           0.0810
     35 H7         10.5573    15.1157    65.5909 H          1           0.0745
     36 H8         14.7802    14.7256    67.1337 H          1           0.1451
     37 H9         19.3179    14.5166    66.3614 H          1           0.1672
     38 H10        17.7752    16.0046    62.6465 H          1           0.1446
     39 H11        15.3141    16.3286    62.4710 H          1           0.1369
     40 H12        13.1049    16.1916    63.4855 H          1           0.1355
     41 H13        24.0749    14.4323    62.5020 H          1           0.4040
     42 H14        23.3371    13.0218    63.0391 H          1           0.4174
     43 H15        18.8632    13.1055    64.7760 H          1           0.4015
     44 H16        19.3726    11.5073    64.8704 H          1           0.4017
     45 H17        23.1480    19.0446    62.0420 H          1           0.0703
     46 H18        21.5132    18.3734    61.8292 H          1           0.0736
     47 H19        22.1496    18.6649    63.4658 H          1           0.0710
     48 H20        24.9813    17.6065    62.9438 H          1           0.0608
     49 H21        23.9831    17.2266    64.3675 H          1           0.0847
     50 H22        24.6525    15.9107    63.3732 H          1           0.0701
     51 H23        24.0878    17.1975    60.6465 H          1           0.0710
     52 H24        23.7591    15.5018    61.0763 H          1           0.0847
     53 H25        22.4530    16.5263    60.4338 H          1           0.0611
@<TRIPOS>BOND
     1    1    2 1
     2    1   29 1
     3    1   30 1
     4    1   31 1
     5    2    3 1
     6    3    4 1
     7    3   32 1
     8    3   33 1
     9    4    5 1
    10    4   34 1
    11    4   35 1
    12    5    6 1
    13    6   15 ar
    14    6    7 ar
    15    7    8 ar
    16    7   36 1
    17    8   13 ar
    18    8    9 ar
    19    9   10 ar
    20   10   11 ar
    21   10   37 1
    22   11   12 ar
    23   11   16 1
    24   12   13 ar
    25   12   38 1
    26   13   14 ar
    27   14   15 ar
    28   14   39 1
    29   15   40 1
    30   16   21 1
    31   16   17 2
    32   17   18 1
    33   18   19 1
    34   18   25 1
    35   19   20 1
    36   19   21 2
    37   20   41 1
    38   20   42 1
    39   21   22 1
    40   22   23 am
    41   22   24 2
    42   23   43 1
    43   23   44 1
    44   25   26 1
    45   25   27 1
    46   25   28 1
    47   26   45 1
    48   26   46 1
    49   26   47 1
    50   27   48 1
    51   27   49 1
    52   27   50 1
    53   28   51 1
    54   28   52 1
    55   28   53 1
##########                 Name:                 1570
##########          Protonation:                  100
##########               SMILES:   CC(C)(C)n1c(c(c(n1)c2cc3ccc(cc3nc2)OCCOC)C(=O)N)N
##########            Long Name:   -amino-1-tert-butyl-3-[7-(2-methoxyethoxy)-3-quinolyl]pyrazole-4-carboxamide
##########          FlexRecCode: 1
##########               Number:                  204
##########   Ligand Source File: /raid1/people/rgc/Examples/tdt/part3/ligand22set/build/ligand22set-0000001.db2.g
##########           GlobalRank: 20
##########                 Rank:                    4
##########               Setnum:                  281
##########             Matchnum:                 2472
##########                Cloud:                    1
##########        Electrostatic:            -9.886614
##########        Van der Waals:           -30.984304
##########  Ligand Polar Desolv:            10.018806
########## Ligand Apolar Desolv:            -1.070029
##########      Internal Energy:             0.000000
##########      Receptor Energy: 0.0
########## Receptor Desolvation:             0.000000
########## Receptor Hydrophobic:             0.000000
##########         Total Energy: -31.92
##########        Ligand Charge:             0.000000
##########            Arbitrary:    +999.9990
##########     heavy atom count:   28
##########           pose count:   10
##########        Ligand Energy:             0.000000
# num electro vdwattr vdwrepu polsolv apolsol rdesolv rhydroe totalscore fullpol fullapo
#   1    0.14   -1.58    0.37    0.00    0.02    0.00    0.00      -1.05    0.00    0.03
#   2   -1.74   -1.97    0.69    0.78    0.81    0.00    0.00      -1.44    1.22    1.27
#   3    0.41   -1.60    0.54    0.03   -0.08    0.00    0.00      -0.69    0.05   -0.13
#   4    0.41   -1.58    0.55    0.04   -0.06    0.00    0.00      -0.65    0.06   -0.10
#   5   -2.60   -2.53    1.12    0.85    0.52    0.00    0.00      -2.64    1.29    0.79
#   6    1.53   -2.29    0.67   -0.41   -0.20    0.00    0.00      -0.71   -0.63   -0.31
#   7   -1.20   -2.87    0.93    0.95   -0.30    0.00    0.00      -2.49    1.50   -0.47
#   8    1.73   -2.74    1.02   -0.70   -0.48    0.00    0.00      -1.17   -1.08   -0.73
#   9   -2.84   -2.88    0.59    3.45    1.29    0.00    0.00      -0.40    5.31    1.98
#  10    1.40   -2.53    0.59   -0.86   -0.56    0.00    0.00      -1.97   -1.39   -0.91
#  11   -1.06   -1.90    0.30    0.35   -0.24    0.00    0.00      -2.55    0.59   -0.40
#  12   -0.13   -2.49    0.66   -0.02   -0.27    0.00    0.00      -2.25   -0.04   -0.45
#  13   -1.89   -2.82    1.31    0.32   -0.24    0.00    0.00      -3.32    0.54   -0.40
#  14   -0.50   -3.75    2.33   -0.02   -0.27    0.00    0.00      -2.22   -0.04   -0.46
#  15   -1.96   -2.69    1.02   -0.09   -0.27    0.00    0.00      -3.99   -0.14   -0.43
#  16    1.70   -1.70    0.29   -0.45   -0.41    0.00    0.00      -0.56   -0.84   -0.77
#  17   -2.81   -2.14    0.77    0.57    0.51    0.00    0.00      -3.10    1.20    1.08
#  18   -0.66   -1.54    0.42    0.21    0.39    0.00    0.00      -1.18    0.50    0.94
#  19    0.70   -1.98    1.46   -0.32   -0.96    0.00    0.00      -1.10   -0.66   -1.98
#  20    1.37   -2.46    1.96   -0.91    0.40    0.00    0.00       0.35   -1.92    0.83
#  21   -1.68   -1.66    0.27    1.05   -0.25    0.00    0.00      -2.27    1.78   -0.42
#  22    2.02   -2.65    0.71   -2.06   -0.34    0.00    0.00      -2.32   -3.21   -0.53
#  23    0.06   -4.61    3.38    0.44    1.25    0.00    0.00       0.51    0.68    1.96
#  24   -3.25   -4.29    2.23    4.13    0.28    0.00    0.00      -0.90    6.24    0.42
#  25   -0.77   -0.78    0.12    0.15   -0.05    0.00    0.00      -1.33    0.36   -0.12
#  26    1.01   -0.98    0.16   -0.11   -0.07    0.00    0.00       0.00   -0.26   -0.16
#  27    0.68   -0.96    0.15   -0.30   -0.07    0.00    0.00      -0.49   -0.77   -0.17
#  28    1.49   -2.01    3.18   -0.20   -0.06    0.00    0.00       2.38   -0.54   -0.17
#  29    0.15   -0.57    0.30    0.08   -0.14    0.00    0.00      -0.17    0.16   -0.28
#  30    0.24   -0.42    0.06    0.01   -0.13    0.00    0.00      -0.25    0.02   -0.28
#  31    0.45   -0.71    0.43    0.01   -0.15    0.00    0.00       0.03    0.02   -0.28
#  32    0.44   -1.00    1.29    0.02   -0.15    0.00    0.00       0.59    0.03   -0.28
#  33    0.62   -0.81    1.85    0.21   -0.12    0.00    0.00       1.75    0.52   -0.28
#  34    0.55   -0.57    0.29    0.32   -0.14    0.00    0.00       0.46    0.63   -0.27
#  35    0.44   -0.74    1.08    0.12   -0.15    0.00    0.00       0.76    0.23   -0.27
#  36    0.62   -0.78    0.27   -0.64   -0.16    0.00    0.00      -0.69   -1.10   -0.28
#  37    1.11   -0.85    0.81   -0.81   -0.11    0.00    0.00       0.16   -1.49   -0.21
#  38    1.92   -0.67    0.31    0.07   -0.15    0.00    0.00       1.47    0.13   -0.28
#  39    0.40   -1.75    4.58    0.67   -0.17    0.00    0.00       3.73    1.11   -0.28
#  40    1.15   -0.60    0.20    0.49   -0.11    0.00    0.00       1.13    0.96   -0.22
#  41   -1.50   -0.03    0.00    0.65    0.10    0.00    0.00      -0.77    2.14    0.32
#  42   -0.85   -0.05    0.00    0.54    0.27    0.00    0.00      -0.08    1.15    0.58
#  43    1.18   -0.06    0.00    0.39    0.30    0.00    0.00       1.81    0.78    0.59
#  44   -3.75   -0.19    0.06    0.04    0.39    0.00    0.00      -3.45    0.06    0.60
#  45   -0.90   -0.22    0.01    0.01   -0.06    0.00    0.00      -1.15    0.05   -0.28
#  46   -0.59   -0.36    0.15    0.16   -0.09    0.00    0.00      -0.72    0.53   -0.28
#  47   -0.24   -0.53    0.19   -0.01   -0.12    0.00    0.00      -0.71   -0.03   -0.28
#  48   -0.44   -0.24    0.04    0.09   -0.04    0.00    0.00      -0.59    0.43   -0.20
#  49   -0.11   -0.57    0.19    0.35   -0.11    0.00    0.00      -0.25    0.88   -0.28
#  50   -0.22   -0.24    0.03    0.04   -0.06    0.00    0.00      -0.46    0.18   -0.28
#  51   -0.93   -0.29    0.08    0.00   -0.07    0.00    0.00      -1.22    0.00   -0.28
#  52   -0.55   -1.16    4.46    0.25   -0.09    0.00    0.00       2.91    0.75   -0.28
#  53   -0.63   -1.15    3.08    0.11   -0.08    0.00    0.00       1.34    0.29   -0.20

@<TRIPOS>MOLECULE
             1570       100
   53    55     0     0     0



@<TRIPOS>ATOM
      1 C1         10.3391    12.1316    63.3034 C.3        1           0.0304
      2 O1         10.2519    13.3647    64.0204 O.3        1          -0.3852
      3 C2         11.3849    13.6377    64.8474 C.3        1           0.0610
      4 C3         11.1837    14.9748    65.5630 C.3        1           0.0586
      5 O2         12.3166    15.2478    66.3900 O.3        1          -0.3012
      6 C4         13.5225    15.3423    65.7722 C.ar       1           0.1539
      7 C5         14.6644    14.9823    66.4515 C.ar       1          -0.1441
      8 C6         15.9116    15.0794    65.8143 C.ar       1           0.1722
      9 N1         17.0356    14.7349    66.4537 N.ar       1          -0.4745
     10 C7         18.2076    14.8180    65.8770 C.ar       1           0.1717
     11 C8         18.3455    15.2734    64.5560 C.ar       1          -0.0890
     12 C9         17.2168    15.6457    63.8395 C.ar       1          -0.0086
     13 C10        15.9683    15.5490    64.4772 C.ar       1          -0.1370
     14 C11        14.7835    15.9083    63.8121 C.ar       1          -0.0474
     15 C12        13.5884    15.7987    64.4519 C.ar       1          -0.1928
     16 C13        19.6873    15.3563    63.9313 C.2        1           0.1821
     17 N2         20.2656    16.4393    63.4678 N.2        1          -0.2772
     18 N3         21.5246    16.1115    62.9579 N.pl3      1          -0.3790
     19 C14        21.7436    14.7901    63.1043 C.2        1           0.4180
     20 N4         22.8767    14.1037    62.7181 N.pl3      1          -0.8439
     21 C15        20.6211    14.2438    63.7209 C.2        1          -0.3644
     22 C16        20.4128    12.8389    64.0847 C.2        1           0.6095
     23 N5         19.2638    12.4598    64.6784 N.am       1          -0.8475
     24 O3         21.2775    12.0150    63.8504 O.2        1          -0.5385
     25 C17        22.4637    17.0606    62.3549 C.3        1           0.1780
     26 C18        21.8523    18.4631    62.3707 C.3        1          -0.1405
     27 C19        23.7686    17.0641    63.1537 C.3        1          -0.1653
     28 C20        22.7510    16.6458    60.9106 C.3        1          -0.1671
     29 H1          9.4416    11.9981    62.6996 H          1           0.0422
     30 H2         11.2144    12.1500    62.6539 H          1           0.0438
     31 H3         10.4282    11.3062    64.0097 H          1           0.0887
     32 H4         11.4955    12.8435    65.5856 H          1           0.0633
     33 H5         12.2818    13.6874    64.2299 H          1           0.0736
     34 H6         11.0730    15.7690    64.8246 H          1           0.0810
     35 H7         10.2867    14.9252    66.1804 H          1           0.0745
     36 H8         14.6012    14.6274    67.4695 H          1           0.1451
     37 H9         19.0891    14.5298    66.4302 H          1           0.1672
     38 H10        17.2956    15.9997    62.8221 H          1           0.1446
     39 H11        14.8216    16.2662    62.7939 H          1           0.1369
     40 H12        12.6799    16.0718    63.9357 H          1           0.1355
     41 H13        23.6109    14.5778    62.2971 H          1           0.4040
     42 H14        22.9391    13.1474    62.8675 H          1           0.4174
     43 H15        18.5748    13.1164    64.8652 H          1           0.4015
     44 H16        19.1260    11.5302    64.9191 H          1           0.4017
     45 H17        22.5510    19.1691    61.9222 H          1           0.0703
     46 H18        20.9226    18.4605    61.8016 H          1           0.0736
     47 H19        21.6475    18.7586    63.3998 H          1           0.0710
     48 H20        24.4674    17.7702    62.7052 H          1           0.0608
     49 H21        23.5640    17.3595    64.1827 H          1           0.0847
     50 H22        24.2042    16.0650    63.1423 H          1           0.0701
     51 H23        23.4497    17.3519    60.4619 H          1           0.0710
     52 H24        23.1866    15.6467    60.8993 H          1           0.0847
     53 H25        21.8213    16.6432    60.3415 H          1           0.0611
@<TRIPOS>BOND
     1    1    2 1
     2    1   29 1
     3    1   30 1
     4    1   31 1
     5    2    3 1
     6    3    4 1
     7    3   32 1
     8    3   33 1
     9    4    5 1
    10    4   34 1
    11    4   35 1
    12    5    6 1
    13    6   15 ar
    14    6    7 ar
    15    7    8 ar
    16    7   36 1
    17    8   13 ar
    18    8    9 ar
    19    9   10 ar
    20   10   11 ar
    21   10   37 1
    22   11   12 ar
    23   11   16 1
    24   12   13 ar
    25   12   38 1
    26   13   14 ar
    27   14   15 ar
    28   14   39 1
    29   15   40 1
    30   16   21 1
    31   16   17 2
    32   17   18 1
    33   18   19 1
    34   18   25 1
    35   19   20 1
    36   19   21 2
    37   20   41 1
    38   20   42 1
    39   21   22 1
    40   22   23 am
    41   22   24 2
    42   23   43 1
    43   23   44 1
    44   25   26 1
    45   25   27 1
    46   25   28 1
    47   26   45 1
    48   26   46 1
    49   26   47 1
    50   27   48 1
    51   27   49 1
    52   27   50 1
    53   28   51 1
    54   28   52 1
    55   28   53 1
##########                 Name:                 1570
##########          Protonation:                  100
##########               SMILES:   CC(C)(C)n1c(c(c(n1)c2cc3ccc(cc3nc2)OCCOC)C(=O)N)N
##########            Long Name:   -amino-1-tert-butyl-3-[7-(2-methoxyethoxy)-3-quinolyl]pyrazole-4-carboxamide
##########          FlexRecCode: 1
##########               Number:                  204
##########   Ligand Source File: /raid1/people/rgc/Examples/tdt/part3/ligand22set/build/ligand22set-0000001.db2.g
##########           GlobalRank: 20
##########                 Rank:                    5
##########               Setnum:                  281
##########             Matchnum:                 1055
##########                Cloud:                    1
##########        Electrostatic:            -8.401377
##########        Van der Waals:           -32.464321
##########  Ligand Polar Desolv:            10.131613
########## Ligand Apolar Desolv:            -1.082566
##########      Internal Energy:             0.000000
##########      Receptor Energy: 0.0
########## Receptor Desolvation:             0.000000
########## Receptor Hydrophobic:             0.000000
##########         Total Energy: -31.82
##########        Ligand Charge:             0.000000
##########            Arbitrary:    +999.9990
##########     heavy atom count:   28
##########           pose count:   10
##########        Ligand Energy:             0.000000
# num electro vdwattr vdwrepu polsolv apolsol rdesolv rhydroe totalscore fullpol fullapo
#   1    0.14   -1.58    0.38    0.00    0.02    0.00    0.00      -1.04    0.00    0.03
#   2   -1.69   -2.01    0.77    0.78    0.81    0.00    0.00      -1.34    1.22    1.27
#   3    0.41   -1.57    0.47    0.03   -0.08    0.00    0.00      -0.74    0.05   -0.13
#   4    0.40   -1.62    0.61    0.04   -0.06    0.00    0.00      -0.63    0.06   -0.10
#   5   -2.56   -2.78    1.64    0.85    0.52    0.00    0.00      -2.34    1.29    0.79
#   6    1.50   -2.30    0.60   -0.41   -0.20    0.00    0.00      -0.82   -0.63   -0.31
#   7   -1.12   -3.01    0.93    0.97   -0.30    0.00    0.00      -2.54    1.50   -0.47
#   8    1.54   -2.82    0.97   -0.70   -0.47    0.00    0.00      -1.49   -1.08   -0.73
#   9   -2.04   -3.25    0.76    3.52    1.31    0.00    0.00       0.30    5.31    1.98
#  10    1.15   -2.90    0.78   -0.88   -0.57    0.00    0.00      -2.43   -1.39   -0.91
#  11   -0.98   -1.99    0.33    0.36   -0.24    0.00    0.00      -2.52    0.59   -0.40
#  12   -0.12   -2.35    0.63   -0.02   -0.27    0.00    0.00      -2.14   -0.04   -0.45
#  13   -1.84   -2.77    1.35    0.33   -0.24    0.00    0.00      -3.18    0.54   -0.40
#  14   -0.54   -3.37    1.78   -0.02   -0.27    0.00    0.00      -2.43   -0.04   -0.46
#  15   -1.99   -2.58    0.98   -0.09   -0.27    0.00    0.00      -3.95   -0.14   -0.43
#  16    1.65   -1.92    0.54   -0.45   -0.41    0.00    0.00      -0.59   -0.84   -0.77
#  17   -2.82   -2.41    1.10    0.58    0.52    0.00    0.00      -3.03    1.20    1.08
#  18   -1.20   -1.60    0.31    0.22    0.41    0.00    0.00      -1.87    0.50    0.94
#  19    1.18   -1.74    0.41   -0.34   -1.02    0.00    0.00      -1.51   -0.66   -1.98
#  20    0.18   -2.08    0.51   -0.97    0.42    0.00    0.00      -1.94   -1.92    0.83
#  21   -1.81   -1.90    0.41    1.06   -0.25    0.00    0.00      -2.48    1.78   -0.42
#  22    1.80   -3.72    3.28   -2.08   -0.34    0.00    0.00      -1.07   -3.21   -0.53
#  23    1.19   -6.23    8.20    0.43    1.25    0.00    0.00       4.84    0.68    1.96
#  24   -3.12   -5.54    4.15    4.21    0.28    0.00    0.00      -0.02    6.24    0.42
#  25   -0.37   -0.83    0.09    0.15   -0.05    0.00    0.00      -1.01    0.36   -0.12
#  26    0.58   -1.11    0.21   -0.11   -0.07    0.00    0.00      -0.52   -0.26   -0.16
#  27    0.33   -1.65    0.76   -0.32   -0.07    0.00    0.00      -0.94   -0.77   -0.17
#  28    1.05   -1.43    1.63   -0.19   -0.06    0.00    0.00       1.01   -0.54   -0.17
#  29    0.15   -0.55    0.28    0.08   -0.14    0.00    0.00      -0.19    0.16   -0.28
#  30    0.24   -0.43    0.06    0.01   -0.13    0.00    0.00      -0.25    0.02   -0.28
#  31    0.44   -0.69    0.40    0.01   -0.15    0.00    0.00       0.01    0.02   -0.28
#  32    0.44   -1.02    1.46    0.02   -0.15    0.00    0.00       0.74    0.03   -0.28
#  33    0.61   -0.77    1.59    0.21   -0.12    0.00    0.00       1.53    0.52   -0.28
#  34    0.55   -0.58    0.31    0.32   -0.14    0.00    0.00       0.46    0.63   -0.27
#  35    0.43   -0.72    0.94    0.12   -0.15    0.00    0.00       0.63    0.23   -0.27
#  36    0.59   -0.94    0.51   -0.66   -0.17    0.00    0.00      -0.67   -1.10   -0.28
#  37    0.95   -1.08    1.44   -0.87   -0.12    0.00    0.00       0.31   -1.49   -0.21
#  38    2.05   -0.53    0.13    0.07   -0.14    0.00    0.00       1.58    0.13   -0.28
#  39    0.73   -1.30    2.06    0.65   -0.16    0.00    0.00       1.97    1.11   -0.28
#  40    1.17   -0.57    0.17    0.48   -0.11    0.00    0.00       1.15    0.96   -0.22
#  41   -1.07   -0.02    0.00    0.69    0.10    0.00    0.00      -0.30    2.14    0.32
#  42    0.16   -0.05    0.00    0.55    0.28    0.00    0.00       0.94    1.15    0.58
#  43    0.57   -0.07    0.00    0.41    0.31    0.00    0.00       1.23    0.78    0.59
#  44   -4.37   -0.24    0.09    0.04    0.41    0.00    0.00      -4.05    0.06    0.60
#  45   -0.66   -0.24    0.02    0.01   -0.08    0.00    0.00      -0.95    0.05   -0.28
#  46   -0.32   -0.37    0.17    0.16   -0.08    0.00    0.00      -0.44    0.53   -0.28
#  47   -0.05   -0.74    0.64   -0.01   -0.13    0.00    0.00      -0.29   -0.03   -0.28
#  48   -0.37   -0.49    0.28    0.12   -0.06    0.00    0.00      -0.51    0.43   -0.20
#  49    0.12   -1.13    1.52    0.42   -0.13    0.00    0.00       0.80    0.88   -0.28
#  50   -0.08   -0.44    0.18    0.06   -0.09    0.00    0.00      -0.36    0.18   -0.28
#  51   -0.69   -0.21    0.03    0.00   -0.06    0.00    0.00      -0.92    0.00   -0.28
#  52   -0.41   -0.61    1.09    0.22   -0.08    0.00    0.00       0.21    0.75   -0.28
#  53   -0.45   -1.02    3.43    0.10   -0.07    0.00    0.00       1.99    0.29   -0.20

@<TRIPOS>MOLECULE
             1570       100
   53    55     0     0     0



@<TRIPOS>ATOM
      1 C1         10.3131    12.1481    63.2821 C.3        1           0.0304
      2 O1         10.2136    13.3866    63.9883 O.3        1          -0.3852
      3 C2         11.3067    13.6409    64.8728 C.3        1           0.0610
      4 C3         11.0956    14.9856    65.5712 C.3        1           0.0586
      5 O2         12.1888    15.2400    66.4556 O.3        1          -0.3012
      6 C4         13.4272    15.3068    65.9019 C.ar       1           0.1539
      7 C5         14.5241    14.9274    66.6419 C.ar       1          -0.1441
      8 C6         15.8049    14.9959    66.0710 C.ar       1           0.1722
      9 N1         16.8864    14.6322    66.7702 N.ar       1          -0.4745
     10 C7         18.0885    14.6885    66.2557 C.ar       1           0.1717
     11 C8         18.3051    15.1341    64.9420 C.ar       1          -0.0890
     12 C9         17.2235    15.5253    64.1654 C.ar       1          -0.0086
     13 C10        15.9415    15.4572    64.7367 C.ar       1          -0.1370
     14 C11        14.8009    15.8369    64.0087 C.ar       1          -0.0474
     15 C12        13.5718    15.7548    64.5849 C.ar       1          -0.1928
     16 C13        19.6794    15.1865    64.3886 C.2        1           0.1821
     17 N2         20.3033    16.2551    63.9517 N.2        1          -0.2772
     18 N3         21.5804    15.8993    63.5103 N.pl3      1          -0.3790
     19 C14        21.7642    14.5745    63.6735 C.2        1           0.4180
     20 N4         22.9019    13.8633    63.3505 N.pl3      1          -0.8439
     21 C15        20.5999    14.0542    64.2324 C.2        1          -0.3644
     22 C16        20.3441    12.6558    64.5906 C.2        1           0.6095
     23 N5         19.1579    12.3031    65.1245 N.am       1          -0.8475
     24 O3         21.2029    11.8134    64.4056 O.2        1          -0.5385
     25 C17        22.5691    16.8260    62.9537 C.3        1           0.1780
     26 C18        21.9865    18.2406    62.9313 C.3        1          -0.1405
     27 C19        23.8300    16.8073    63.8201 C.3        1          -0.1653
     28 C20        22.9235    16.3979    61.5282 C.3        1          -0.1671
     29 H1          9.4460    12.0297    62.6325 H          1           0.0422
     30 H2         11.2215    12.1455    62.6796 H          1           0.0438
     31 H3         10.3479    11.3249    63.9956 H          1           0.0887
     32 H4         11.3621    12.8486    65.6192 H          1           0.0633
     33 H5         12.2358    13.6692    64.3033 H          1           0.0736
     34 H6         11.0402    15.7780    64.8247 H          1           0.0810
     35 H7         10.1665    14.9574    66.1406 H          1           0.0745
     36 H8         14.4002    14.5792    67.6567 H          1           0.1451
     37 H9         18.9336    14.3854    66.8558 H          1           0.1672
     38 H10        17.3630    15.8723    63.1521 H          1           0.1446
     39 H11        14.8998    16.1886    62.9923 H          1           0.1369
     40 H12        12.6975    16.0435    64.0205 H          1           0.1355
     41 H13        23.6667    14.3202    62.9668 H          1           0.4040
     42 H14        22.9367    12.9068    63.5070 H          1           0.4174
     43 H15        18.4736    12.9745    65.2718 H          1           0.4015
     44 H16        18.9886    11.3778    65.3614 H          1           0.4017
     45 H17        22.7222    18.9300    62.5172 H          1           0.0703
     46 H18        21.0883    18.2538    62.3140 H          1           0.0736
     47 H19        21.7340    18.5457    63.9468 H          1           0.0710
     48 H20        24.5657    17.4968    63.4061 H          1           0.0608
     49 H21        23.5776    17.1122    64.8357 H          1           0.0847
     50 H22        24.2450    15.7995    63.8358 H          1           0.0701
     51 H23        23.6592    17.0873    61.1140 H          1           0.0710
     52 H24        23.3385    15.3901    61.5441 H          1           0.0847
     53 H25        22.0252    16.4111    60.9109 H          1           0.0611
@<TRIPOS>BOND
     1    1    2 1
     2    1   29 1
     3    1   30 1
     4    1   31 1
     5    2    3 1
     6    3    4 1
     7    3   32 1
     8    3   33 1
     9    4    5 1
    10    4   34 1
    11    4   35 1
    12    5    6 1
    13    6   15 ar
    14    6    7 ar
    15    7    8 ar
    16    7   36 1
    17    8   13 ar
    18    8    9 ar
    19    9   10 ar
    20   10   11 ar
    21   10   37 1
    22   11   12 ar
    23   11   16 1
    24   12   13 ar
    25   12   38 1
    26   13   14 ar
    27   14   15 ar
    28   14   39 1
    29   15   40 1
    30   16   21 1
    31   16   17 2
    32   17   18 1
    33   18   19 1
    34   18   25 1
    35   19   20 1
    36   19   21 2
    37   20   41 1
    38   20   42 1
    39   21   22 1
    40   22   23 am
    41   22   24 2
    42   23   43 1
    43   23   44 1
    44   25   26 1
    45   25   27 1
    46   25   28 1
    47   26   45 1
    48   26   46 1
    49   26   47 1
    50   27   48 1
    51   27   49 1
    52   27   50 1
    53   28   51 1
    54   28   52 1
    55   28   53 1
##########                 Name:                 1570
##########          Protonation:                  100
##########               SMILES:   CC(C)(C)n1c(c(c(n1)c2cc3ccc(cc3nc2)OCCOC)C(=O)N)N
##########            Long Name:   -amino-1-tert-butyl-3-[7-(2-methoxyethoxy)-3-quinolyl]pyrazole-4-carboxamide
##########          FlexRecCode: 1
##########               Number:                  202
##########   Ligand Source File: /raid1/people/rgc/Examples/tdt/part3/ligand22set/build/ligand22set-0000001.db2.g
##########           GlobalRank: 20
##########                 Rank:                    1
##########               Setnum:                  264
##########             Matchnum:                10847
##########                Cloud:                    1
##########        Electrostatic:            -6.867485
##########        Van der Waals:           -32.630684
##########  Ligand Polar Desolv:             9.855526
########## Ligand Apolar Desolv:            -0.687367
##########      Internal Energy:             0.000000
##########      Receptor Energy: 0.0
########## Receptor Desolvation:             0.000000
########## Receptor Hydrophobic:             0.000000
##########         Total Energy: -30.33
##########        Ligand Charge:             0.000000
##########            Arbitrary:    +999.9990
##########     heavy atom count:   28
##########           pose count:   10
##########        Ligand Energy:             0.000000
# num electro vdwattr vdwrepu polsolv apolsol rdesolv rhydroe totalscore fullpol fullapo
#   1    0.15   -1.57    0.36    0.00    0.02    0.00    0.00      -1.04    0.00    0.03
#   2   -1.25   -2.09    0.72    0.76    0.79    0.00    0.00      -1.06    1.22    1.27
#   3    0.38   -1.33    0.22    0.03   -0.08    0.00    0.00      -0.77    0.05   -0.13
#   4    0.50   -1.42    0.37    0.04   -0.06    0.00    0.00      -0.58    0.06   -0.10
#   5   -2.86   -1.78    0.33    0.84    0.51    0.00    0.00      -2.96    1.29    0.79
#   6    1.67   -2.73    1.92   -0.40   -0.20    0.00    0.00       0.26   -0.63   -0.31
#   7   -1.76   -3.12    1.73    0.89   -0.28    0.00    0.00      -2.54    1.50   -0.47
#   8    2.51   -2.86    0.95   -0.64   -0.43    0.00    0.00      -0.47   -1.08   -0.73
#   9   -6.02   -4.58    3.28    3.21    1.20    0.00    0.00      -2.91    5.31    1.98
#  10    2.15   -4.04    3.94   -0.79   -0.52    0.00    0.00       0.75   -1.39   -0.91
#  11   -1.13   -1.95    0.43    0.32   -0.21    0.00    0.00      -2.55    0.59   -0.40
#  12   -0.10   -1.91    0.31   -0.02   -0.26    0.00    0.00      -1.98   -0.04   -0.45
#  13   -1.72   -2.26    0.58    0.34   -0.25    0.00    0.00      -3.31    0.54   -0.40
#  14   -0.34   -2.82    0.77   -0.03   -0.30    0.00    0.00      -2.71   -0.04   -0.46
#  15   -1.37   -3.10    1.12   -0.09   -0.27    0.00    0.00      -3.71   -0.14   -0.43
#  16    1.11   -1.69    0.44   -0.40   -0.36    0.00    0.00      -0.89   -0.84   -0.77
#  17   -0.65   -1.60    0.33    0.52    0.47    0.00    0.00      -0.93    1.20    1.08
#  18    0.96   -1.38    0.41    0.20    0.37    0.00    0.00       0.57    0.50    0.94
#  19   -0.49   -2.26    3.03   -0.28   -0.84    0.00    0.00      -0.84   -0.66   -1.98
#  20    3.27   -2.01    0.91   -0.85    0.37    0.00    0.00       1.69   -1.92    0.83
#  21   -0.87   -2.24    2.42    0.97   -0.23    0.00    0.00       0.05    1.78   -0.42
#  22    2.01   -2.31    0.67   -1.98   -0.33    0.00    0.00      -1.93   -3.21   -0.53
#  23   -2.37   -4.29    3.05    0.45    1.29    0.00    0.00      -1.87    0.68    1.96
#  24   -2.33   -2.74    0.88    4.02    0.27    0.00    0.00       0.11    6.24    0.42
#  25   -1.25   -0.63    0.05    0.13   -0.04    0.00    0.00      -1.75    0.36   -0.12
#  26    1.49   -0.72    0.04   -0.10   -0.06    0.00    0.00       0.65   -0.26   -0.16
#  27    0.99   -1.43    0.86   -0.26   -0.06    0.00    0.00       0.09   -0.77   -0.17
#  28    1.68   -0.90    0.25   -0.18   -0.06    0.00    0.00       0.79   -0.54   -0.17
#  29    0.10   -0.72    0.45    0.08   -0.13    0.00    0.00      -0.23    0.16   -0.28
#  30    0.40   -0.50    0.09    0.01   -0.13    0.00    0.00      -0.13    0.02   -0.28
#  31    0.48   -0.37    0.04    0.01   -0.13    0.00    0.00       0.03    0.02   -0.28
#  32    0.39   -0.55    0.35    0.02   -0.15    0.00    0.00       0.05    0.03   -0.28
#  33    0.49   -0.58    0.27    0.27   -0.14    0.00    0.00       0.31    0.52   -0.28
#  34    0.81   -0.69    1.06    0.27   -0.11    0.00    0.00       1.33    0.63   -0.27
#  35    0.60   -0.64    0.34    0.12   -0.14    0.00    0.00       0.29    0.23   -0.27
#  36    1.07   -0.86    0.65   -0.59   -0.15    0.00    0.00       0.12   -1.10   -0.28
#  37    0.96   -1.41    4.66   -0.77   -0.11    0.00    0.00       3.33   -1.49   -0.21
#  38    1.24   -0.47    0.18    0.05   -0.12    0.00    0.00       0.88    0.13   -0.28
#  39    0.37   -0.63    0.12    0.67   -0.17    0.00    0.00       0.36    1.11   -0.28
#  40    0.37   -0.76    0.23    0.57   -0.13    0.00    0.00       0.27    0.96   -0.22
#  41   -1.83   -0.02    0.00    0.56    0.08    0.00    0.00      -1.20    2.14    0.32
#  42   -2.58   -0.05    0.00    0.47    0.24    0.00    0.00      -1.92    1.15    0.58
#  43    0.84   -0.13    0.04    0.50    0.37    0.00    0.00       1.62    0.78    0.59
#  44    0.89   -0.11    0.01    0.04    0.41    0.00    0.00       1.24    0.06    0.60
#  45   -0.89   -0.18    0.01    0.01   -0.05    0.00    0.00      -1.10    0.05   -0.28
#  46   -1.03   -0.19    0.01    0.12   -0.06    0.00    0.00      -1.16    0.53   -0.28
#  47   -0.53   -0.35    0.04   -0.01   -0.10    0.00    0.00      -0.95   -0.03   -0.28
#  48   -0.53   -0.51    0.59    0.09   -0.04    0.00    0.00      -0.41    0.43   -0.20
#  49   -0.31   -0.93    0.88    0.35   -0.11    0.00    0.00      -0.12    0.88   -0.28
#  50   -0.29   -0.30    0.07    0.04   -0.06    0.00    0.00      -0.55    0.18   -0.28
#  51   -0.82   -0.16    0.01    0.00   -0.05    0.00    0.00      -1.02    0.00   -0.28
#  52   -0.58   -0.30    0.08    0.20   -0.08    0.00    0.00      -0.66    0.75   -0.28
#  53   -0.84   -0.57    0.54    0.10   -0.07    0.00    0.00      -0.83    0.29   -0.20

@<TRIPOS>MOLECULE
             1570       100
   53    55     0     0     0



@<TRIPOS>ATOM
      1 C1         10.6185    13.4967    62.9170 C.3        1           0.0304
      2 O1         10.0801    14.2757    63.9873 O.3        1          -0.3852
      3 C2         10.9681    14.4328    65.0958 C.3        1           0.0610
      4 C3         12.2476    15.1300    64.6293 C.3        1           0.0586
      5 O2         13.1356    15.2872    65.7379 O.3        1          -0.3012
      6 C4         14.4666    15.2829    65.4672 C.ar       1           0.1539
      7 C5         14.9147    15.7500    64.2524 C.ar       1          -0.1441
      8 C6         16.2901    15.7462    63.9711 C.ar       1           0.1722
      9 N1         16.7500    16.1957    62.7974 N.ar       1          -0.4745
     10 C7         18.0283    16.2007    62.5165 C.ar       1           0.1717
     11 C8         18.9838    15.7340    63.4334 C.ar       1          -0.0890
     12 C9         18.5697    15.2549    64.6683 C.ar       1          -0.0086
     13 C10        17.1930    15.2583    64.9500 C.ar       1          -0.1370
     14 C11        16.7024    14.7884    66.1804 C.ar       1          -0.0474
     15 C12        15.3654    14.8092    66.4282 C.ar       1          -0.1928
     16 C13        20.4245    15.7524    63.0846 C.2        1           0.1821
     17 N2         21.1406    16.8108    62.7863 N.2        1          -0.2772
     18 N3         22.4552    16.4213    62.5173 N.pl3      1          -0.3790
     19 C14        22.5688    15.0853    62.6497 C.2        1           0.4180
     20 N4         23.7165    14.3420    62.4630 N.pl3      1          -0.8439
     21 C15        21.3192    14.5911    63.0143 C.2        1          -0.3644
     22 C16        20.9673    13.1918    63.2735 C.2        1           0.6095
     23 N5         20.5347    12.4081    62.2660 N.am       1          -0.8475
     24 O3         21.0658    12.7379    64.3985 O.2        1          -0.5385
     25 C17        23.5446    17.3281    62.1468 C.3        1           0.1780
     26 C18        23.0194    18.7643    62.1005 C.3        1          -0.1405
     27 C19        24.6661    17.2282    63.1829 C.3        1          -0.1653
     28 C20        24.0863    16.9386    60.7700 C.3        1          -0.1671
     29 H1          9.8840    13.4243    62.1150 H          1           0.0422
     30 H2         11.5228    13.9740    62.5395 H          1           0.0438
     31 H3         10.8596    12.4976    63.2803 H          1           0.0887
     32 H4         10.4856    15.0357    65.8651 H          1           0.0633
     33 H5         11.2162    13.4532    65.5042 H          1           0.0736
     34 H6         12.7301    14.5272    63.8601 H          1           0.0810
     35 H7         11.9994    16.1097    64.2210 H          1           0.0745
     36 H8         14.2118    16.1173    63.5193 H          1           0.1451
     37 H9         18.3558    16.5722    61.5568 H          1           0.1672
     38 H10        19.2844    14.8899    65.3912 H          1           0.1446
     39 H11        17.3860    14.4161    66.9290 H          1           0.1369
     40 H12        14.9929    14.4512    67.3766 H          1           0.1355
     41 H13        24.5437    14.7822    62.2119 H          1           0.4040
     42 H14        23.6961    13.3798    62.5828 H          1           0.4174
     43 H15        20.4562    12.7697    61.3695 H          1           0.4015
     44 H16        20.3019    11.4821    62.4375 H          1           0.4017
     45 H17        23.8300    19.4389    61.8250 H          1           0.0703
     46 H18        22.2206    18.8354    61.3624 H          1           0.0736
     47 H19        22.6335    19.0419    63.0815 H          1           0.0710
     48 H20        25.4766    17.9028    62.9073 H          1           0.0608
     49 H21        24.2802    17.5055    64.1638 H          1           0.0847
     50 H22        25.0402    16.2049    63.2157 H          1           0.0701
     51 H23        24.8968    17.6131    60.4943 H          1           0.0710
     52 H24        24.4604    15.9153    60.8029 H          1           0.0847
     53 H25        23.2874    17.0097    60.0318 H          1           0.0611
@<TRIPOS>BOND
     1    1    2 1
     2    1   29 1
     3    1   30 1
     4    1   31 1
     5    2    3 1
     6    3    4 1
     7    3   32 1
     8    3   33 1
     9    4    5 1
    10    4   34 1
    11    4   35 1
    12    5    6 1
    13    6   15 ar
    14    6    7 ar
    15    7    8 ar
    16    7   36 1
    17    8   13 ar
    18    8    9 ar
    19    9   10 ar
    20   10   11 ar
    21   10   37 1
    22   11   12 ar
    23   11   16 1
    24   12   13 ar
    25   12   38 1
    26   13   14 ar
    27   14   15 ar
    28   14   39 1
    29   15   40 1
    30   16   21 1
    31   16   17 2
    32   17   18 1
    33   18   19 1
    34   18   25 1
    35   19   20 1
    36   19   21 2
    37   20   41 1
    38   20   42 1
    39   21   22 1
    40   22   23 am
    41   22   24 2
    42   23   43 1
    43   23   44 1
    44   25   26 1
    45   25   27 1
    46   25   28 1
    47   26   45 1
    48   26   46 1
    49   26   47 1
    50   27   48 1
    51   27   49 1
    52   27   50 1
    53   28   51 1
    54   28   52 1
    55   28   53 1
##########                 Name:                 1570
##########          Protonation:                  100
##########               SMILES:   CC(C)(C)n1c(c(c(n1)c2cc3ccc(cc3nc2)OCCOC)C(=O)N)N
##########            Long Name:   -amino-1-tert-butyl-3-[7-(2-methoxyethoxy)-3-quinolyl]pyrazole-4-carboxamide
##########          FlexRecCode: 1
##########               Number:                  203
##########   Ligand Source File: /raid1/people/rgc/Examples/tdt/part3/ligand22set/build/ligand22set-0000001.db2.g
##########           GlobalRank: 20
##########                 Rank:                    1
##########               Setnum:                  172
##########             Matchnum:                10847
##########                Cloud:                    1
##########        Electrostatic:            -5.596240
##########        Van der Waals:           -32.858341
##########  Ligand Polar Desolv:             9.822383
########## Ligand Apolar Desolv:            -0.806251
##########      Internal Energy:             0.000000
##########      Receptor Energy: 0.0
########## Receptor Desolvation:             0.000000
########## Receptor Hydrophobic:             0.000000
##########         Total Energy: -29.44
##########        Ligand Charge:             0.000000
##########            Arbitrary:    +999.9990
##########     heavy atom count:   28
##########           pose count:   10
##########        Ligand Energy:             0.000000
# num electro vdwattr vdwrepu polsolv apolsol rdesolv rhydroe totalscore fullpol fullapo
#   1    0.15   -1.57    0.36    0.00    0.02    0.00    0.00      -1.04    0.00    0.03
#   2   -1.25   -2.09    0.72    0.76    0.79    0.00    0.00      -1.06    1.22    1.27
#   3    0.38   -1.33    0.22    0.03   -0.08    0.00    0.00      -0.77    0.05   -0.13
#   4    0.50   -1.42    0.37    0.04   -0.06    0.00    0.00      -0.58    0.06   -0.10
#   5   -2.86   -1.78    0.33    0.84    0.51    0.00    0.00      -2.96    1.29    0.79
#   6    1.67   -2.73    1.92   -0.40   -0.20    0.00    0.00       0.26   -0.63   -0.31
#   7   -1.76   -3.12    1.73    0.89   -0.28    0.00    0.00      -2.54    1.50   -0.47
#   8    2.51   -2.86    0.95   -0.64   -0.43    0.00    0.00      -0.47   -1.08   -0.73
#   9   -6.02   -4.58    3.28    3.21    1.20    0.00    0.00      -2.91    5.31    1.98
#  10    2.15   -4.04    3.94   -0.79   -0.52    0.00    0.00       0.75   -1.39   -0.91
#  11   -1.13   -1.95    0.43    0.32   -0.21    0.00    0.00      -2.55    0.59   -0.40
#  12   -0.10   -1.91    0.31   -0.02   -0.26    0.00    0.00      -1.98   -0.04   -0.45
#  13   -1.72   -2.26    0.58    0.34   -0.25    0.00    0.00      -3.31    0.54   -0.40
#  14   -0.34   -2.82    0.77   -0.03   -0.30    0.00    0.00      -2.71   -0.04   -0.46
#  15   -1.37   -3.10    1.12   -0.09   -0.27    0.00    0.00      -3.71   -0.14   -0.43
#  16    1.11   -1.69    0.44   -0.40   -0.36    0.00    0.00      -0.89   -0.84   -0.77
#  17   -0.65   -1.60    0.33    0.52    0.47    0.00    0.00      -0.93    1.20    1.08
#  18    0.96   -1.38    0.41    0.20    0.37    0.00    0.00       0.57    0.50    0.94
#  19   -0.49   -2.26    3.03   -0.28   -0.84    0.00    0.00      -0.84   -0.66   -1.98
#  20    3.27   -2.01    0.91   -0.85    0.37    0.00    0.00       1.69   -1.92    0.83
#  21   -0.87   -2.24    2.42    0.97   -0.23    0.00    0.00       0.05    1.78   -0.42
#  22    2.01   -2.31    0.67   -1.98   -0.33    0.00    0.00      -1.93   -3.21   -0.53
#  23   -3.73   -3.49    1.84    0.44    1.27    0.00    0.00      -3.67    0.68    1.96
#  24   -1.53   -3.42    1.70    4.08    0.27    0.00    0.00       1.11    6.24    0.42
#  25   -1.25   -0.63    0.05    0.13   -0.04    0.00    0.00      -1.75    0.36   -0.12
#  26    1.49   -0.72    0.04   -0.10   -0.06    0.00    0.00       0.65   -0.26   -0.16
#  27    0.99   -1.43    0.86   -0.26   -0.06    0.00    0.00       0.09   -0.77   -0.17
#  28    1.68   -0.90    0.25   -0.18   -0.06    0.00    0.00       0.79   -0.54   -0.17
#  29    0.10   -0.72    0.45    0.08   -0.13    0.00    0.00      -0.23    0.16   -0.28
#  30    0.40   -0.50    0.09    0.01   -0.13    0.00    0.00      -0.13    0.02   -0.28
#  31    0.48   -0.37    0.04    0.01   -0.13    0.00    0.00       0.03    0.02   -0.28
#  32    0.39   -0.55    0.35    0.02   -0.15    0.00    0.00       0.05    0.03   -0.28
#  33    0.49   -0.58    0.27    0.27   -0.14    0.00    0.00       0.31    0.52   -0.28
#  34    0.81   -0.69    1.06    0.27   -0.11    0.00    0.00       1.33    0.63   -0.27
#  35    0.60   -0.64    0.34    0.12   -0.14    0.00    0.00       0.29    0.23   -0.27
#  36    1.07   -0.86    0.65   -0.59   -0.15    0.00    0.00       0.12   -1.10   -0.28
#  37    0.96   -1.41    4.66   -0.77   -0.11    0.00    0.00       3.33   -1.49   -0.21
#  38    1.24   -0.47    0.18    0.05   -0.12    0.00    0.00       0.88    0.13   -0.28
#  39    0.37   -0.63    0.12    0.67   -0.17    0.00    0.00       0.36    1.11   -0.28
#  40    0.37   -0.76    0.23    0.57   -0.13    0.00    0.00       0.27    0.96   -0.22
#  41   -1.83   -0.02    0.00    0.56    0.08    0.00    0.00      -1.20    2.14    0.32
#  42   -2.58   -0.05    0.00    0.47    0.24    0.00    0.00      -1.92    1.15    0.58
#  43    2.12   -0.07    0.01    0.41    0.31    0.00    0.00       2.77    0.78    0.59
#  44    1.45   -0.09    0.00    0.04    0.37    0.00    0.00       1.78    0.06    0.60
#  45   -0.89   -0.18    0.01    0.01   -0.05    0.00    0.00      -1.10    0.05   -0.28
#  46   -1.03   -0.19    0.01    0.12   -0.06    0.00    0.00      -1.16    0.53   -0.28
#  47   -0.53   -0.35    0.04   -0.01   -0.10    0.00    0.00      -0.95   -0.03   -0.28
#  48   -0.53   -0.51    0.59    0.09   -0.04    0.00    0.00      -0.41    0.43   -0.20
#  49   -0.31   -0.93    0.88    0.35   -0.11    0.00    0.00      -0.12    0.88   -0.28
#  50   -0.29   -0.30    0.07    0.04   -0.06    0.00    0.00      -0.55    0.18   -0.28
#  51   -0.82   -0.16    0.01    0.00   -0.05    0.00    0.00      -1.02    0.00   -0.28
#  52   -0.58   -0.30    0.08    0.20   -0.08    0.00    0.00      -0.66    0.75   -0.28
#  53   -0.84   -0.57    0.54    0.10   -0.07    0.00    0.00      -0.83    0.29   -0.20

@<TRIPOS>MOLECULE
             1570       100
   53    55     0     0     0



@<TRIPOS>ATOM
      1 C1         10.6185    13.4967    62.9170 C.3        1           0.0304
      2 O1         10.0801    14.2757    63.9873 O.3        1          -0.3852
      3 C2         10.9681    14.4328    65.0958 C.3        1           0.0610
      4 C3         12.2476    15.1300    64.6293 C.3        1           0.0586
      5 O2         13.1356    15.2872    65.7379 O.3        1          -0.3012
      6 C4         14.4666    15.2829    65.4672 C.ar       1           0.1539
      7 C5         14.9147    15.7500    64.2524 C.ar       1          -0.1441
      8 C6         16.2901    15.7462    63.9711 C.ar       1           0.1722
      9 N1         16.7500    16.1957    62.7974 N.ar       1          -0.4745
     10 C7         18.0283    16.2007    62.5165 C.ar       1           0.1717
     11 C8         18.9838    15.7340    63.4334 C.ar       1          -0.0890
     12 C9         18.5697    15.2549    64.6683 C.ar       1          -0.0086
     13 C10        17.1930    15.2583    64.9500 C.ar       1          -0.1370
     14 C11        16.7024    14.7884    66.1804 C.ar       1          -0.0474
     15 C12        15.3654    14.8092    66.4282 C.ar       1          -0.1928
     16 C13        20.4245    15.7524    63.0846 C.2        1           0.1821
     17 N2         21.1406    16.8108    62.7863 N.2        1          -0.2772
     18 N3         22.4552    16.4213    62.5173 N.pl3      1          -0.3790
     19 C14        22.5688    15.0853    62.6497 C.2        1           0.4180
     20 N4         23.7165    14.3420    62.4630 N.pl3      1          -0.8439
     21 C15        21.3192    14.5911    63.0143 C.2        1          -0.3644
     22 C16        20.9673    13.1918    63.2735 C.2        1           0.6095
     23 N5         21.0764    12.6891    64.5192 N.am       1          -0.8475
     24 O3         20.5767    12.4839    62.3636 O.2        1          -0.5385
     25 C17        23.5446    17.3281    62.1468 C.3        1           0.1780
     26 C18        23.0194    18.7643    62.1005 C.3        1          -0.1405
     27 C19        24.6661    17.2282    63.1829 C.3        1          -0.1653
     28 C20        24.0863    16.9386    60.7700 C.3        1          -0.1671
     29 H1          9.8840    13.4243    62.1150 H          1           0.0422
     30 H2         11.5228    13.9740    62.5395 H          1           0.0438
     31 H3         10.8596    12.4976    63.2803 H          1           0.0887
     32 H4         10.4856    15.0357    65.8651 H          1           0.0633
     33 H5         11.2162    13.4532    65.5042 H          1           0.0736
     34 H6         12.7301    14.5272    63.8601 H          1           0.0810
     35 H7         11.9994    16.1097    64.2210 H          1           0.0745
     36 H8         14.2118    16.1173    63.5193 H          1           0.1451
     37 H9         18.3558    16.5722    61.5568 H          1           0.1672
     38 H10        19.2844    14.8899    65.3912 H          1           0.1446
     39 H11        17.3860    14.4161    66.9290 H          1           0.1369
     40 H12        14.9929    14.4512    67.3766 H          1           0.1355
     41 H13        24.5437    14.7822    62.2119 H          1           0.4040
     42 H14        23.6961    13.3798    62.5828 H          1           0.4174
     43 H15        21.3877    13.2532    65.2443 H          1           0.4015
     44 H16        20.8435    11.7632    64.6907 H          1           0.4017
     45 H17        23.8300    19.4389    61.8250 H          1           0.0703
     46 H18        22.2206    18.8354    61.3624 H          1           0.0736
     47 H19        22.6335    19.0419    63.0815 H          1           0.0710
     48 H20        25.4766    17.9028    62.9073 H          1           0.0608
     49 H21        24.2802    17.5055    64.1638 H          1           0.0847
     50 H22        25.0402    16.2049    63.2157 H          1           0.0701
     51 H23        24.8968    17.6131    60.4943 H          1           0.0710
     52 H24        24.4604    15.9153    60.8029 H          1           0.0847
     53 H25        23.2874    17.0097    60.0318 H          1           0.0611
@<TRIPOS>BOND
     1    1    2 1
     2    1   29 1
     3    1   30 1
     4    1   31 1
     5    2    3 1
     6    3    4 1
     7    3   32 1
     8    3   33 1
     9    4    5 1
    10    4   34 1
    11    4   35 1
    12    5    6 1
    13    6   15 ar
    14    6    7 ar
    15    7    8 ar
    16    7   36 1
    17    8   13 ar
    18    8    9 ar
    19    9   10 ar
    20   10   11 ar
    21   10   37 1
    22   11   12 ar
    23   11   16 1
    24   12   13 ar
    25   12   38 1
    26   13   14 ar
    27   14   15 ar
    28   14   39 1
    29   15   40 1
    30   16   21 1
    31   16   17 2
    32   17   18 1
    33   18   19 1
    34   18   25 1
    35   19   20 1
    36   19   21 2
    37   20   41 1
    38   20   42 1
    39   21   22 1
    40   22   23 am
    41   22   24 2
    42   23   43 1
    43   23   44 1
    44   25   26 1
    45   25   27 1
    46   25   28 1
    47   26   45 1
    48   26   46 1
    49   26   47 1
    50   27   48 1
    51   27   49 1
    52   27   50 1
    53   28   51 1
    54   28   52 1
    55   28   53 1
##########                 Name:                 1570
##########          Protonation:                  100
##########               SMILES:   CC(C)(C)n1c(c(c(n1)c2cc3ccc(cc3nc2)OCCOC)C(=O)N)N
##########            Long Name:   -amino-1-tert-butyl-3-[7-(2-methoxyethoxy)-3-quinolyl]pyrazole-4-carboxamide
##########          FlexRecCode: 1
##########               Number:                  207
##########   Ligand Source File: /raid1/people/rgc/Examples/tdt/part3/ligand22set/build/ligand22set-0000001.db2.g
##########           GlobalRank: 20
##########                 Rank:                    1
##########               Setnum:                  277
##########             Matchnum:                11087
##########                Cloud:                    1
##########        Electrostatic:            -7.026593
##########        Van der Waals:           -29.370178
##########  Ligand Polar Desolv:             9.988642
########## Ligand Apolar Desolv:            -1.258453
##########      Internal Energy:             0.000000
##########      Receptor Energy: 0.0
########## Receptor Desolvation:             0.000000
########## Receptor Hydrophobic:             0.000000
##########         Total Energy: -27.67
##########        Ligand Charge:             0.000000
##########            Arbitrary:    +999.9990
##########     heavy atom count:   28
##########           pose count:   10
##########        Ligand Energy:             0.000000
# num electro vdwattr vdwrepu polsolv apolsol rdesolv rhydroe totalscore fullpol fullapo
#   1    0.17   -1.61    0.38    0.00    0.02    0.00    0.00      -1.05    0.00    0.03
#   2   -2.19   -1.62    0.21    0.79    0.82    0.00    0.00      -1.99    1.22    1.27
#   3    0.45   -1.60    0.75    0.03   -0.08    0.00    0.00      -0.46    0.05   -0.13
#   4    0.44   -1.59    0.51    0.04   -0.07    0.00    0.00      -0.67    0.06   -0.10
#   5   -2.83   -2.45    0.96    0.85    0.52    0.00    0.00      -2.95    1.29    0.79
#   6    1.71   -2.26    0.41   -0.42   -0.21    0.00    0.00      -0.77   -0.63   -0.31
#   7   -1.71   -2.55    0.78    0.94   -0.30    0.00    0.00      -2.83    1.50   -0.47
#   8    2.53   -2.77    0.94   -0.65   -0.44    0.00    0.00      -0.38   -1.08   -0.73
#   9   -5.90   -3.98    1.90    3.22    1.20    0.00    0.00      -3.56    5.31    1.98
#  10    2.49   -3.45    1.77   -0.81   -0.53    0.00    0.00      -0.54   -1.39   -0.91
#  11   -1.37   -2.09    0.45    0.34   -0.23    0.00    0.00      -2.89    0.59   -0.40
#  12   -0.12   -2.21    0.39   -0.03   -0.29    0.00    0.00      -2.25   -0.04   -0.45
#  13   -1.94   -2.50    0.64    0.36   -0.27    0.00    0.00      -3.70    0.54   -0.40
#  14   -0.47   -3.84    3.18   -0.03   -0.30    0.00    0.00      -1.46   -0.04   -0.46
#  15   -1.87   -3.54    1.69   -0.09   -0.29    0.00    0.00      -4.10   -0.14   -0.43
#  16    1.99   -1.83    0.39   -0.43   -0.40    0.00    0.00      -0.27   -0.84   -0.77
#  17   -2.64   -2.30    1.16    0.55    0.50    0.00    0.00      -2.73    1.20    1.08
#  18   -0.55   -1.47    0.27    0.21    0.40    0.00    0.00      -1.14    0.50    0.94
#  19    1.03   -1.66    0.42   -0.31   -0.94    0.00    0.00      -1.46   -0.66   -1.98
#  20   -0.15   -1.89    0.42   -0.94    0.40    0.00    0.00      -2.15   -1.92    0.83
#  21   -1.99   -1.67    0.29    1.03   -0.24    0.00    0.00      -2.58    1.78   -0.42
#  22    2.46   -2.63    1.35   -1.99   -0.33    0.00    0.00      -1.15   -3.21   -0.53
#  23   -2.05   -3.90    2.69    0.41    1.18    0.00    0.00      -1.68    0.68    1.96
#  24   -2.41   -3.66    2.09    4.08    0.27    0.00    0.00       0.37    6.24    0.42
#  25   -0.76   -0.74    0.07    0.14   -0.05    0.00    0.00      -1.34    0.36   -0.12
#  26    1.23   -0.81    0.07   -0.11   -0.07    0.00    0.00       0.31   -0.26   -0.16
#  27    0.57   -1.52    0.56   -0.31   -0.07    0.00    0.00      -0.77   -0.77   -0.17
#  28    1.21   -1.24    0.94   -0.18   -0.06    0.00    0.00       0.67   -0.54   -0.17
#  29    0.18   -0.38    0.03    0.08   -0.14    0.00    0.00      -0.22    0.16   -0.28
#  30    0.30   -0.86    1.10    0.01   -0.14    0.00    0.00       0.41    0.02   -0.28
#  31    0.49   -0.71    0.39    0.01   -0.15    0.00    0.00       0.04    0.02   -0.28
#  32    0.44   -0.75    0.60    0.02   -0.15    0.00    0.00       0.17    0.03   -0.28
#  33    0.65   -1.36    7.54    0.23   -0.12    0.00    0.00       6.94    0.52   -0.28
#  34    0.62   -0.67    0.40    0.32   -0.14    0.00    0.00       0.53    0.63   -0.27
#  35    0.45   -0.60    0.38    0.12   -0.14    0.00    0.00       0.21    0.23   -0.27
#  36    1.23   -0.62    0.22   -0.55   -0.14    0.00    0.00       0.13   -1.10   -0.28
#  37    1.62   -1.39    3.77   -0.83   -0.12    0.00    0.00       3.05   -1.49   -0.21
#  38    1.49   -0.54    0.16    0.07   -0.15    0.00    0.00       1.03    0.13   -0.28
#  39    0.82   -1.17    1.11    0.69   -0.17    0.00    0.00       1.28    1.11   -0.28
#  40    1.00   -1.45    2.58    0.59   -0.14    0.00    0.00       2.59    0.96   -0.22
#  41   -0.79   -0.02    0.00    0.64    0.10    0.00    0.00      -0.07    2.14    0.32
#  42    0.46   -0.04    0.00    0.53    0.27    0.00    0.00       1.23    1.15    0.58
#  43    2.22   -0.05    0.00    0.33    0.25    0.00    0.00       2.76    0.78    0.59
#  44   -1.11   -0.10    0.01    0.04    0.36    0.00    0.00      -0.80    0.06    0.60
#  45   -0.90   -0.18    0.01    0.01   -0.05    0.00    0.00      -1.12    0.05   -0.28
#  46   -0.80   -0.23    0.02    0.14   -0.08    0.00    0.00      -0.94    0.53   -0.28
#  47   -0.44   -0.43    0.09   -0.01   -0.11    0.00    0.00      -0.90   -0.03   -0.28
#  48   -0.45   -0.49    0.33    0.11   -0.05    0.00    0.00      -0.54    0.43   -0.20
#  49   -0.07   -0.78    0.33    0.40   -0.13    0.00    0.00      -0.24    0.88   -0.28
#  50   -0.11   -0.50    0.25    0.06   -0.09    0.00    0.00      -0.39    0.18   -0.28
#  51   -0.69   -0.19    0.02    0.00   -0.05    0.00    0.00      -0.91    0.00   -0.28
#  52   -0.43   -0.38    0.27    0.20   -0.07    0.00    0.00      -0.42    0.75   -0.28
#  53   -0.55   -1.17    3.73    0.10   -0.07    0.00    0.00       2.04    0.29   -0.20

@<TRIPOS>MOLECULE
             1570       100
   53    55     0     0     0



@<TRIPOS>ATOM
      1 C1         11.0747    12.2323    63.3343 C.3        1           0.0304
      2 O1         10.8833    13.5819    63.7633 O.3        1          -0.3852
      3 C2         11.7445    13.9799    64.8319 C.3        1           0.0610
      4 C3         11.4531    15.4343    65.2070 C.3        1           0.0586
      5 O2         12.3144    15.8322    66.2757 O.3        1          -0.3012
      6 C4         13.6514    15.7760    66.0436 C.ar       1           0.1539
      7 C5         14.1286    15.9712    64.7673 C.ar       1          -0.1441
      8 C6         15.5104    15.9135    64.5257 C.ar       1           0.1722
      9 N1         15.9984    16.1004    63.2937 N.ar       1          -0.4745
     10 C7         17.2830    16.0508    63.0483 C.ar       1           0.1717
     11 C8         18.2161    15.7985    64.0667 C.ar       1          -0.0890
     12 C9         17.7725    15.5962    65.3661 C.ar       1          -0.0086
     13 C10        16.3895    15.6537    65.6080 C.ar       1          -0.1370
     14 C11        15.8695    15.4589    66.8991 C.ar       1          -0.0474
     15 C12        14.5269    15.5262    67.1052 C.ar       1          -0.1928
     16 C13        19.6648    15.7482    63.7560 C.2        1           0.1821
     17 N2         20.3880    16.7204    63.2523 N.2        1          -0.2772
     18 N3         21.7087    16.2885    63.1050 N.pl3      1          -0.3790
     19 C14        21.8188    15.0134    63.5263 C.2        1           0.4180
     20 N4         22.9705    14.2531    63.5320 N.pl3      1          -0.8439
     21 C15        20.5607    14.6037    63.9600 C.2        1          -0.3644
     22 C16        20.2024    13.2919    64.5078 C.2        1           0.6095
     23 N5         18.9326    13.0430    64.8844 N.am       1          -0.8475
     24 O3         21.0519    12.4279    64.6227 O.2        1          -0.5385
     25 C17        22.8068    17.0989    62.5725 C.3        1           0.1780
     26 C18        22.2831    18.4884    62.2039 C.3        1          -0.1405
     27 C19        23.9030    17.2314    63.6316 C.3        1          -0.1653
     28 C20        23.3812    16.4232    61.3258 C.3        1          -0.1671
     29 H1         10.3841    12.0080    62.5213 H          1           0.0422
     30 H2         12.0997    12.1036    62.9862 H          1           0.0438
     31 H3         10.8866    11.5559    64.1680 H          1           0.0887
     32 H4         11.5701    13.3396    65.6967 H          1           0.0633
     33 H5         12.7832    13.8875    64.5150 H          1           0.0736
     34 H6         11.6274    16.0744    64.3423 H          1           0.0810
     35 H7         10.4143    15.5266    65.5241 H          1           0.0745
     36 H8         13.4435    16.1675    63.9558 H          1           0.1451
     37 H9         17.6335    16.2072    62.0388 H          1           0.1672
     38 H10        18.4696    15.4000    66.1674 H          1           0.1446
     39 H11        16.5349    15.2609    67.7264 H          1           0.1369
     40 H12        14.1318    15.3802    68.0997 H          1           0.1355
     41 H13        23.8035    14.6326    63.2109 H          1           0.4040
     42 H14        22.9470    13.3395    63.8568 H          1           0.4174
     43 H15        18.2556    13.7315    64.7928 H          1           0.4015
     44 H16        18.6955    12.1749    65.2468 H          1           0.4017
     45 H17        23.1002    19.0913    61.8078 H          1           0.0703
     46 H18        21.5022    18.3940    61.4494 H          1           0.0736
     47 H19        21.8739    18.9699    63.0921 H          1           0.0710
     48 H20        24.7201    17.8343    63.2355 H          1           0.0608
     49 H21        23.4938    17.7126    64.5198 H          1           0.0847
     50 H22        24.2761    16.2413    63.8940 H          1           0.0701
     51 H23        24.1982    17.0260    60.9296 H          1           0.0710
     52 H24        23.7542    15.4332    61.5883 H          1           0.0847
     53 H25        22.6002    16.3287    60.5712 H          1           0.0611
@<TRIPOS>BOND
     1    1    2 1
     2    1   29 1
     3    1   30 1
     4    1   31 1
     5    2    3 1
     6    3    4 1
     7    3   32 1
     8    3   33 1
     9    4    5 1
    10    4   34 1
    11    4   35 1
    12    5    6 1
    13    6   15 ar
    14    6    7 ar
    15    7    8 ar
    16    7   36 1
    17    8   13 ar
    18    8    9 ar
    19    9   10 ar
    20   10   11 ar
    21   10   37 1
    22   11   12 ar
    23   11   16 1
    24   12   13 ar
    25   12   38 1
    26   13   14 ar
    27   14   15 ar
    28   14   39 1
    29   15   40 1
    30   16   21 1
    31   16   17 2
    32   17   18 1
    33   18   19 1
    34   18   25 1
    35   19   20 1
    36   19   21 2
    37   20   41 1
    38   20   42 1
    39   21   22 1
    40   22   23 am
    41   22   24 2
    42   23   43 1
    43   23   44 1
    44   25   26 1
    45   25   27 1
    46   25   28 1
    47   26   45 1
    48   26   46 1
    49   26   47 1
    50   27   48 1
    51   27   49 1
    52   27   50 1
    53   28   51 1
    54   28   52 1
    55   28   53 1
##########                 Name:                 1570
##########          Protonation:                  100
##########               SMILES:   CC(C)(C)n1c(c(c(n1)c2cc3ccc(cc3nc2)OCCOC)C(=O)N)N
##########            Long Name:   -amino-1-tert-butyl-3-[7-(2-methoxyethoxy)-3-quinolyl]pyrazole-4-carboxamide
##########          FlexRecCode: 1
##########               Number:                  205
##########   Ligand Source File: /raid1/people/rgc/Examples/tdt/part3/ligand22set/build/ligand22set-0000001.db2.g
##########           GlobalRank: 21
##########                 Rank:                    1
##########               Setnum:                  107
##########             Matchnum:                28266
##########                Cloud:                    1
##########        Electrostatic:           -10.078450
##########        Van der Waals:           -26.200148
##########  Ligand Polar Desolv:            10.142196
########## Ligand Apolar Desolv:            -0.715311
##########      Internal Energy:             0.000000
##########      Receptor Energy: 0.0
########## Receptor Desolvation:             0.000000
########## Receptor Hydrophobic:             0.000000
##########         Total Energy: -26.85
##########        Ligand Charge:             0.000000
##########            Arbitrary:    +999.9990
##########     heavy atom count:   28
##########           pose count:   10
##########        Ligand Energy:             0.000000
# num electro vdwattr vdwrepu polsolv apolsol rdesolv rhydroe totalscore fullpol fullapo
#   1    0.10   -1.96    1.72    0.00    0.02    0.00    0.00      -0.13    0.00    0.03
#   2   -2.51   -1.58    0.22    0.79    0.82    0.00    0.00      -2.25    1.22    1.27
#   3    0.42   -1.82    0.86    0.03   -0.08    0.00    0.00      -0.59    0.05   -0.13
#   4    0.47   -1.97    0.76    0.04   -0.06    0.00    0.00      -0.76    0.06   -0.10
#   5   -3.14   -1.72    0.27    0.84    0.52    0.00    0.00      -3.22    1.29    0.79
#   6    1.85   -2.57    1.29   -0.40   -0.20    0.00    0.00      -0.03   -0.63   -0.31
#   7   -1.86   -3.18    1.38    0.90   -0.28    0.00    0.00      -3.05    1.50   -0.47
#   8    2.61   -2.74    0.79   -0.64   -0.43    0.00    0.00      -0.41   -1.08   -0.73
#   9   -6.38   -4.26    3.10    3.15    1.17    0.00    0.00      -3.22    5.31    1.98
#  10    2.01   -3.28    2.20   -0.76   -0.50    0.00    0.00      -0.33   -1.39   -0.91
#  11   -0.92   -1.72    0.26    0.31   -0.21    0.00    0.00      -2.28    0.59   -0.40
#  12   -0.09   -1.90    0.34   -0.02   -0.26    0.00    0.00      -1.94   -0.04   -0.45
#  13   -1.67   -2.20    0.55    0.34   -0.25    0.00    0.00      -3.23    0.54   -0.40
#  14   -0.35   -2.78    0.76   -0.03   -0.30    0.00    0.00      -2.69   -0.04   -0.46
#  15   -1.58   -2.92    1.00   -0.09   -0.27    0.00    0.00      -3.86   -0.14   -0.43
#  16    0.84   -1.67    0.55   -0.41   -0.38    0.00    0.00      -1.07   -0.84   -0.77
#  17   -0.38   -1.48    0.31    0.51    0.46    0.00    0.00      -0.59    1.20    1.08
#  18    0.73   -1.43    0.42    0.20    0.37    0.00    0.00       0.29    0.50    0.94
#  19   -0.46   -2.05    1.34   -0.30   -0.91    0.00    0.00      -2.38   -0.66   -1.98
#  20    4.56   -3.06    2.96   -0.92    0.40    0.00    0.00       3.95   -1.92    0.83
#  21   -0.83   -2.12    1.40    1.00   -0.24    0.00    0.00      -0.78    1.78   -0.42
#  22    2.28   -2.74    0.68   -2.04   -0.34    0.00    0.00      -2.16   -3.21   -0.53
#  23   -2.56   -5.15    3.98    0.46    1.32    0.00    0.00      -1.96    0.68    1.96
#  24   -2.36   -3.80    1.82    4.11    0.28    0.00    0.00       0.06    6.24    0.42
#  25   -0.93   -0.69    0.06    0.12   -0.04    0.00    0.00      -1.47    0.36   -0.12
#  26    1.11   -0.69    0.05   -0.09   -0.06    0.00    0.00       0.32   -0.26   -0.16
#  27    0.68   -1.88    1.50   -0.27   -0.06    0.00    0.00      -0.03   -0.77   -0.17
#  28    1.12   -0.78    0.15   -0.19   -0.06    0.00    0.00       0.25   -0.54   -0.17
#  29    0.10   -0.55    0.24    0.07   -0.12    0.00    0.00      -0.26    0.16   -0.28
#  30    0.18   -1.10    3.49    0.01   -0.15    0.00    0.00       2.43    0.02   -0.28
#  31    0.09   -0.70    0.54    0.01   -0.15    0.00    0.00      -0.21    0.02   -0.28
#  32    0.42   -0.69    0.67    0.02   -0.15    0.00    0.00       0.27    0.03   -0.28
#  33    0.47   -1.02    1.59    0.31   -0.16    0.00    0.00       1.18    0.52   -0.28
#  34    0.70   -1.30    3.21    0.36   -0.16    0.00    0.00       2.83    0.63   -0.27
#  35    0.50   -1.03    1.38    0.12   -0.14    0.00    0.00       0.82    0.23   -0.27
#  36    0.72   -1.29    2.72   -0.63   -0.16    0.00    0.00       1.36   -1.10   -0.28
#  37    0.85   -0.85    0.98   -0.72   -0.10    0.00    0.00       0.16   -1.49   -0.21
#  38    1.09   -0.51    0.23    0.06   -0.12    0.00    0.00       0.74    0.13   -0.28
#  39    0.30   -0.64    0.14    0.67   -0.17    0.00    0.00       0.30    1.11   -0.28
#  40    0.57   -0.66    0.15    0.54   -0.12    0.00    0.00       0.48    0.96   -0.22
#  41   -2.32   -0.03    0.00    0.67    0.10    0.00    0.00      -1.57    2.14    0.32
#  42   -3.94   -0.16    0.06    0.55    0.28    0.00    0.00      -3.22    1.15    0.58
#  43    0.91   -0.09    0.01    0.51    0.39    0.00    0.00       1.73    0.78    0.59
#  44    0.53   -0.17    0.03    0.04    0.41    0.00    0.00       0.85    0.06    0.60
#  45   -0.65   -0.18    0.02    0.01   -0.04    0.00    0.00      -0.85    0.05   -0.28
#  46   -0.81   -0.16    0.01    0.09   -0.05    0.00    0.00      -0.92    0.53   -0.28
#  47   -0.37   -0.33    0.04   -0.01   -0.10    0.00    0.00      -0.77   -0.03   -0.28
#  48   -0.48   -0.79    1.72    0.10   -0.05    0.00    0.00       0.51    0.43   -0.20
#  49   -0.10   -1.69    4.66    0.36   -0.11    0.00    0.00       3.11    0.88   -0.28
#  50   -0.16   -0.35    0.09    0.05   -0.07    0.00    0.00      -0.45    0.18   -0.28
#  51   -0.49   -0.13    0.01    0.00   -0.04    0.00    0.00      -0.66    0.00   -0.28
#  52   -0.42   -0.25    0.03    0.22   -0.08    0.00    0.00      -0.49    0.75   -0.28
#  53   -0.57   -0.51    0.40    0.09   -0.06    0.00    0.00      -0.66    0.29   -0.20

@<TRIPOS>MOLECULE
             1570       100
   53    55     0     0     0



@<TRIPOS>ATOM
      1 C1          9.9008    13.8709    64.0157 C.3        1           0.0304
      2 O1         11.2193    14.0708    64.5294 O.3        1          -0.3852
      3 C2         11.2527    14.5285    65.8826 C.3        1           0.0610
      4 C3         12.7063    14.7069    66.3249 C.3        1           0.0586
      5 O2         13.3465    15.6666    65.4816 O.3        1          -0.3012
      6 C4         14.6818    15.5184    65.2817 C.ar       1           0.1539
      7 C5         15.2433    15.9430    64.0988 C.ar       1          -0.1441
      8 C6         16.6233    15.7905    63.8907 C.ar       1           0.1722
      9 N1         17.1923    16.1959    62.7492 N.ar       1          -0.4745
     10 C7         18.4769    16.0628    62.5364 C.ar       1           0.1717
     11 C8         19.3246    15.4872    63.4963 C.ar       1          -0.0890
     12 C9         18.7946    15.0470    64.7010 C.ar       1          -0.0086
     13 C10        17.4133    15.1992    64.9094 C.ar       1          -0.1370
     14 C11        16.8085    14.7765    66.1056 C.ar       1          -0.0474
     15 C12        15.4703    14.9418    66.2825 C.ar       1          -0.1928
     16 C13        20.7755    15.3503    63.2246 C.2        1           0.1821
     17 N2         21.6179    16.3261    62.9790 N.2        1          -0.2772
     18 N3         22.8948    15.7969    62.7747 N.pl3      1          -0.3790
     19 C14        22.8547    14.4554    62.8949 C.2        1           0.4180
     20 N4         23.9230    13.5924    62.7593 N.pl3      1          -0.8439
     21 C15        21.5408    14.0985    63.1861 C.2        1          -0.3644
     22 C16        21.0249    12.7442    63.4074 C.2        1           0.6095
     23 N5         20.5645    12.0203    62.3679 N.am       1          -0.8475
     24 O3         21.0122    12.2737    64.5299 O.2        1          -0.5385
     25 C17        24.0951    16.5816    62.4748 C.3        1           0.1780
     26 C18        23.7329    18.0670    62.4201 C.3        1          -0.1405
     27 C19        25.1411    16.3514    63.5673 C.3        1          -0.1653
     28 C20        24.6647    16.1456    61.1234 C.3        1          -0.1671
     29 H1          9.9615    13.5238    62.9842 H          1           0.0422
     30 H2          9.3845    13.1252    64.6202 H          1           0.0438
     31 H3          9.3507    14.8113    64.0508 H          1           0.0887
     32 H4         10.7307    15.4825    65.9565 H          1           0.0633
     33 H5         10.7644    13.7964    66.5259 H          1           0.0736
     34 H6         12.7319    15.0560    67.3572 H          1           0.0810
     35 H7         13.2284    13.7528    66.2510 H          1           0.0745
     36 H8         14.6253    16.3906    63.3345 H          1           0.1451
     37 H9         18.8944    16.4035    61.6005 H          1           0.1672
     38 H10        19.4250    14.6003    65.4558 H          1           0.1446
     39 H11        17.4059    14.3257    66.8843 H          1           0.1369
     40 H12        15.0102    14.6195    67.2050 H          1           0.1355
     41 H13        24.8056    13.9411    62.5583 H          1           0.4040
     42 H14        23.7913    12.6372    62.8648 H          1           0.4174
     43 H15        20.5746    12.3952    61.4734 H          1           0.4015
     44 H16        20.2233    11.1242    62.5143 H          1           0.4017
     45 H17        24.6259    18.6507    62.1970 H          1           0.0703
     46 H18        22.9877    18.2309    61.6418 H          1           0.0736
     47 H19        23.3270    18.3777    63.3829 H          1           0.0710
     48 H20        26.0341    16.9351    63.3442 H          1           0.0608
     49 H21        24.7353    16.6619    64.5301 H          1           0.0847
     50 H22        25.3992    15.2931    63.6061 H          1           0.0701
     51 H23        25.5578    16.7292    60.9002 H          1           0.0710
     52 H24        24.9228    15.0873    61.1622 H          1           0.0847
     53 H25        23.9195    16.3094    60.3449 H          1           0.0611
@<TRIPOS>BOND
     1    1    2 1
     2    1   29 1
     3    1   30 1
     4    1   31 1
     5    2    3 1
     6    3    4 1
     7    3   32 1
     8    3   33 1
     9    4    5 1
    10    4   34 1
    11    4   35 1
    12    5    6 1
    13    6   15 ar
    14    6    7 ar
    15    7    8 ar
    16    7   36 1
    17    8   13 ar
    18    8    9 ar
    19    9   10 ar
    20   10   11 ar
    21   10   37 1
    22   11   12 ar
    23   11   16 1
    24   12   13 ar
    25   12   38 1
    26   13   14 ar
    27   14   15 ar
    28   14   39 1
    29   15   40 1
    30   16   21 1
    31   16   17 2
    32   17   18 1
    33   18   19 1
    34   18   25 1
    35   19   20 1
    36   19   21 2
    37   20   41 1
    38   20   42 1
    39   21   22 1
    40   22   23 am
    41   22   24 2
    42   23   43 1
    43   23   44 1
    44   25   26 1
    45   25   27 1
    46   25   28 1
    47   26   45 1
    48   26   46 1
    49   26   47 1
    50   27   48 1
    51   27   49 1
    52   27   50 1
    53   28   51 1
    54   28   52 1
    55   28   53 1
##########                 Name:                 1570
##########          Protonation:                  100
##########               SMILES:   CC(C)(C)n1c(c(c(n1)c2cc3ccc(cc3nc2)OCCOC)C(=O)N)N
##########            Long Name:   -amino-1-tert-butyl-3-[7-(2-methoxyethoxy)-3-quinolyl]pyrazole-4-carboxamide
##########          FlexRecCode: 1
##########               Number:                  203
##########   Ligand Source File: /raid1/people/rgc/Examples/tdt/part3/ligand22set/build/ligand22set-0000001.db2.g
##########           GlobalRank: 21
##########                 Rank:                    2
##########               Setnum:                  178
##########             Matchnum:                 9902
##########                Cloud:                    1
##########        Electrostatic:            -2.143923
##########        Van der Waals:           -32.146603
##########  Ligand Polar Desolv:             8.987006
########## Ligand Apolar Desolv:            -1.436262
##########      Internal Energy:             0.000000
##########      Receptor Energy: 0.0
########## Receptor Desolvation:             0.000000
########## Receptor Hydrophobic:             0.000000
##########         Total Energy: -26.74
##########        Ligand Charge:             0.000000
##########            Arbitrary:    +999.9990
##########     heavy atom count:   28
##########           pose count:   10
##########        Ligand Energy:             0.000000
# num electro vdwattr vdwrepu polsolv apolsol rdesolv rhydroe totalscore fullpol fullapo
#   1    0.20   -1.41    0.22    0.00    0.02    0.00    0.00      -0.97    0.00    0.03
#   2   -2.85   -1.65    0.26    0.79    0.82    0.00    0.00      -2.63    1.22    1.27
#   3    0.55   -1.70    0.60    0.03   -0.09    0.00    0.00      -0.61    0.05   -0.13
#   4    0.66   -1.57    0.39    0.04   -0.06    0.00    0.00      -0.54    0.06   -0.10
#   5   -3.03   -2.40    1.65    0.81    0.50    0.00    0.00      -2.47    1.29    0.79
#   6    1.78   -3.02    2.18   -0.40   -0.20    0.00    0.00       0.35   -0.63   -0.31
#   7   -2.07   -2.91    1.05    0.89   -0.28    0.00    0.00      -3.32    1.50   -0.47
#   8    2.66   -2.50    0.64   -0.63   -0.43    0.00    0.00      -0.25   -1.08   -0.73
#   9   -6.21   -4.39    4.28    3.05    1.14    0.00    0.00      -2.14    5.31    1.98
#  10    1.52   -3.33    2.68   -0.71   -0.47    0.00    0.00      -0.31   -1.39   -0.91
#  11   -0.68   -1.80    0.46    0.28   -0.19    0.00    0.00      -1.93    0.59   -0.40
#  12   -0.08   -1.87    0.50   -0.02   -0.24    0.00    0.00      -1.72   -0.04   -0.45
#  13   -1.64   -1.89    0.30    0.32   -0.24    0.00    0.00      -3.15    0.54   -0.40
#  14   -0.37   -2.47    0.53   -0.02   -0.28    0.00    0.00      -2.62   -0.04   -0.46
#  15   -1.27   -2.96    1.01   -0.09   -0.28    0.00    0.00      -3.58   -0.14   -0.43
#  16    0.06   -1.91    1.55   -0.35   -0.32    0.00    0.00      -0.97   -0.84   -0.77
#  17    0.18   -1.82    1.17    0.51    0.46    0.00    0.00       0.50    1.20    1.08
#  18    1.58   -1.37    0.45    0.19    0.35    0.00    0.00       1.20    0.50    0.94
#  19   -3.20   -1.26    0.38   -0.22   -0.66    0.00    0.00      -4.96   -0.66   -1.98
#  20    9.61   -0.95    0.09   -0.61    0.26    0.00    0.00       8.41   -1.92    0.83
#  21    2.35   -1.52    0.65    0.73   -0.17    0.00    0.00       2.02    1.78   -0.42
#  22   -7.38   -1.43    0.19   -1.53   -0.25    0.00    0.00     -10.40   -3.21   -0.53
#  23   11.51   -2.17    0.75    0.32    0.93    0.00    0.00      11.34    0.68    1.96
#  24    9.51   -2.06    0.42    3.39    0.23    0.00    0.00      11.49    6.24    0.42
#  25   -0.75   -0.73    0.07    0.14   -0.05    0.00    0.00      -1.32    0.36   -0.12
#  26    0.61   -1.45    0.64   -0.11   -0.07    0.00    0.00      -0.38   -0.26   -0.16
#  27    0.64   -1.06    0.18   -0.31   -0.07    0.00    0.00      -0.61   -0.77   -0.17
#  28    0.74   -0.96    0.32   -0.16   -0.05    0.00    0.00      -0.11   -0.54   -0.17
#  29    0.24   -0.35    0.04    0.07   -0.12    0.00    0.00      -0.12    0.16   -0.28
#  30    0.14   -0.59    0.20    0.01   -0.15    0.00    0.00      -0.38    0.02   -0.28
#  31    0.90   -0.56    0.15    0.01   -0.13    0.00    0.00       0.36    0.02   -0.28
#  32    0.54   -1.26    2.46    0.02   -0.14    0.00    0.00       1.61    0.03   -0.28
#  33    0.68   -0.77    0.66    0.30   -0.16    0.00    0.00       0.72    0.52   -0.28
#  34    0.72   -0.59    0.18    0.31   -0.13    0.00    0.00       0.50    0.63   -0.27
#  35    1.22   -0.66    0.29    0.13   -0.15    0.00    0.00       0.83    0.23   -0.27
#  36    1.44   -0.80    0.47   -0.63   -0.16    0.00    0.00       0.33   -1.10   -0.28
#  37    0.02   -0.72    0.54   -0.70   -0.10    0.00    0.00      -0.95   -1.49   -0.21
#  38    1.03   -0.52    0.38    0.05   -0.10    0.00    0.00       0.83    0.13   -0.28
#  39    0.76   -0.78    0.65    0.61   -0.15    0.00    0.00       1.09    1.11   -0.28
#  40    0.02   -0.73    0.26    0.58   -0.13    0.00    0.00      -0.01    0.96   -0.22
#  41   -3.58   -0.01    0.00    0.32    0.05    0.00    0.00      -3.22    2.14    0.32
#  42   -6.97   -0.01    0.00    0.25    0.12    0.00    0.00      -6.61    1.15    0.58
#  43   -4.23   -0.04    0.00    0.29    0.22    0.00    0.00      -3.75    0.78    0.59
#  44   -6.99   -0.04    0.00    0.02    0.24    0.00    0.00      -6.76    0.06    0.60
#  45   -0.31   -0.40    0.15    0.02   -0.09    0.00    0.00      -0.64    0.05   -0.28
#  46   -0.02   -0.64    0.48    0.21   -0.11    0.00    0.00      -0.08    0.53   -0.28
#  47   -0.61   -1.10    3.32   -0.01   -0.12    0.00    0.00       1.48   -0.03   -0.28
#  48   -0.14   -0.29    0.04    0.14   -0.06    0.00    0.00      -0.32    0.43   -0.20
#  49   -0.36   -0.58    0.20    0.42   -0.13    0.00    0.00      -0.45    0.88   -0.28
#  50   -0.30   -0.27    0.04    0.05   -0.08    0.00    0.00      -0.56    0.18   -0.28
#  51   -0.20   -0.18    0.02    0.00   -0.05    0.00    0.00      -0.41    0.00   -0.28
#  52   -0.52   -0.20    0.05    0.11   -0.04    0.00    0.00      -0.60    0.75   -0.28
#  53   -0.26   -0.92    1.20    0.09   -0.06    0.00    0.00       0.04    0.29   -0.20

@<TRIPOS>MOLECULE
             1570       100
   53    55     0     0     0



@<TRIPOS>ATOM
      1 C1         11.2512    14.5819    63.7560 C.3        1           0.0304
      2 O1         11.7030    14.5735    65.1117 O.3        1          -0.3852
      3 C2         12.1502    15.8462    65.5833 C.3        1           0.0610
      4 C3         13.5748    16.1019    65.0875 C.3        1           0.0586
      5 O2         14.4420    15.0793    65.5817 O.3        1          -0.3012
      6 C4         15.7518    15.1589    65.2310 C.ar       1           0.1539
      7 C5         16.1004    15.7381    64.0319 C.ar       1          -0.1441
      8 C6         17.4538    15.8212    63.6680 C.ar       1           0.1722
      9 N1         17.8176    16.3802    62.5078 N.ar       1          -0.4745
     10 C7         19.0737    16.4673    62.1508 C.ar       1           0.1717
     11 C8         20.1053    15.9781    62.9680 C.ar       1          -0.0890
     12 C9         19.7924    15.3871    64.1842 C.ar       1          -0.0086
     13 C10        18.4378    15.3036    64.5485 C.ar       1          -0.1370
     14 C11        18.0479    14.7184    65.7654 C.ar       1          -0.0474
     15 C12        16.7300    14.6566    66.0951 C.ar       1          -0.1928
     16 C13        21.5184    16.0916    62.5348 C.2        1           0.1821
     17 N2         22.4946    15.2683    62.8367 N.2        1          -0.2772
     18 N3         23.6777    15.7122    62.2403 N.pl3      1          -0.3790
     19 C14        23.4398    16.8422    61.5462 C.2        1           0.4180
     20 N4         24.3673    17.5678    60.8266 N.pl3      1          -0.8439
     21 C15        22.0870    17.1423    61.6822 C.2        1          -0.3644
     22 C16        21.3743    18.2806    61.0943 C.2        1           0.6095
     23 N5         21.2858    19.4426    61.7711 N.am       1          -0.8475
     24 O3         20.8624    18.1760    59.9951 O.2        1          -0.5385
     25 C17        24.9795    15.0496    62.3531 C.3        1           0.1780
     26 C18        24.8416    13.7991    63.2237 C.3        1          -0.1405
     27 C19        25.4707    14.6499    60.9603 C.3        1          -0.1653
     28 C20        25.9857    16.0081    62.9932 C.3        1          -0.1671
     29 H1         10.9289    13.5794    63.4742 H          1           0.0422
     30 H2         10.4149    15.2738    63.6561 H          1           0.0438
     31 H3         12.0650    14.8989    63.1038 H          1           0.0887
     32 H4         11.4887    16.6261    65.2064 H          1           0.0633
     33 H5         12.1378    15.8545    66.6732 H          1           0.0736
     34 H6         13.5872    16.0936    63.9977 H          1           0.0810
     35 H7         13.9158    17.0727    65.4473 H          1           0.0745
     36 H8         15.3368    16.1263    63.3743 H          1           0.1451
     37 H9         19.3226    16.9261    61.2053 H          1           0.1672
     38 H10        20.5671    15.0025    64.8311 H          1           0.1446
     39 H11        18.7936    14.3230    66.4393 H          1           0.1369
     40 H12        16.4350    14.2100    67.0331 H          1           0.1355
     41 H13        25.2907    17.2726    60.7894 H          1           0.4040
     42 H14        24.0962    18.3726    60.3583 H          1           0.4174
     43 H15        21.6938    19.5261    62.6471 H          1           0.4015
     44 H16        20.8143    20.1958    61.3821 H          1           0.4017
     45 H17        25.8102    13.3062    63.3076 H          1           0.0703
     46 H18        24.4916    14.0839    64.2159 H          1           0.0736
     47 H19        24.1248    13.1161    62.7678 H          1           0.0710
     48 H20        26.4392    14.1570    61.0442 H          1           0.0608
     49 H21        24.7539    13.9671    60.5043 H          1           0.0847
     50 H22        25.5691    15.5410    60.3402 H          1           0.0701
     51 H23        26.9542    15.5153    63.0771 H          1           0.0710
     52 H24        26.0839    16.8991    62.3729 H          1           0.0847
     53 H25        25.6356    16.2931    63.9854 H          1           0.0611
@<TRIPOS>BOND
     1    1    2 1
     2    1   29 1
     3    1   30 1
     4    1   31 1
     5    2    3 1
     6    3    4 1
     7    3   32 1
     8    3   33 1
     9    4    5 1
    10    4   34 1
    11    4   35 1
    12    5    6 1
    13    6   15 ar
    14    6    7 ar
    15    7    8 ar
    16    7   36 1
    17    8   13 ar
    18    8    9 ar
    19    9   10 ar
    20   10   11 ar
    21   10   37 1
    22   11   12 ar
    23   11   16 1
    24   12   13 ar
    25   12   38 1
    26   13   14 ar
    27   14   15 ar
    28   14   39 1
    29   15   40 1
    30   16   21 1
    31   16   17 2
    32   17   18 1
    33   18   19 1
    34   18   25 1
    35   19   20 1
    36   19   21 2
    37   20   41 1
    38   20   42 1
    39   21   22 1
    40   22   23 am
    41   22   24 2
    42   23   43 1
    43   23   44 1
    44   25   26 1
    45   25   27 1
    46   25   28 1
    47   26   45 1
    48   26   46 1
    49   26   47 1
    50   27   48 1
    51   27   49 1
    52   27   50 1
    53   28   51 1
    54   28   52 1
    55   28   53 1
##########                 Name:                 1479
##########          Protonation:                   86
##########               SMILES:   CC(C)(C)Oc1ccc2cc(ccc2c1)c3c4c(ncnc4n(n3)CC5CCOCC5)N
##########            Long Name:   y-2-naphthyl)-1-(tetrahydropyran-4-ylmethyl)pyrazolo[3,4-d]pyrimidin-4-amine
##########          FlexRecCode: 1
##########               Number:                   52
##########   Ligand Source File: /raid1/people/rgc/Examples/tdt/part3/ligand22set/build/ligand22set-0000001.db2.g
##########           GlobalRank: 19
##########                 Rank:                    1
##########               Setnum:                  124
##########             Matchnum:                35749
##########                Cloud:                    1
##########        Electrostatic:            -3.340698
##########        Van der Waals:           -28.356979
##########  Ligand Polar Desolv:             3.677377
########## Ligand Apolar Desolv:            -4.772258
##########      Internal Energy:             0.000000
##########      Receptor Energy: 0.0
########## Receptor Desolvation:             0.000000
########## Receptor Hydrophobic:             0.000000
##########         Total Energy: -32.79
##########        Ligand Charge:             0.000000
##########            Arbitrary:    +999.9990
##########     heavy atom count:   32
##########           pose count:    6
##########        Ligand Energy:             0.000000
# num electro vdwattr vdwrepu polsolv apolsol rdesolv rhydroe totalscore fullpol fullapo
#   1   -0.48   -0.90    0.20   -0.16   -0.06    0.00    0.00      -1.40   -0.48   -0.17
#   2   -0.59   -0.56    0.04    0.03   -0.02    0.00    0.00      -1.10    0.11   -0.07
#   3    3.41   -1.32    0.64   -0.18   -0.05    0.00    0.00       2.50   -0.54   -0.16
#   4    0.43   -0.74    0.14   -0.08   -0.06    0.00    0.00      -0.30   -0.23   -0.18
#   5    2.07   -0.56    0.02    0.18    0.23    0.00    0.00       1.94    0.68    0.86
#   6   -1.60   -0.93    0.12   -0.05   -0.08    0.00    0.00      -2.54   -0.18   -0.28
#   7    0.88   -1.07    0.18   -0.07   -0.07    0.00    0.00      -0.14   -0.27   -0.26
#   8    0.38   -2.06    0.90   -0.04   -0.14    0.00    0.00      -0.95   -0.13   -0.46
#   9    0.92   -1.40    0.24    0.00   -0.13    0.00    0.00      -0.38   -0.01   -0.40
#  10    0.53   -1.53    0.23   -0.01   -0.13    0.00    0.00      -0.90   -0.02   -0.33
#  11    0.23   -1.08    0.07    0.04   -0.15    0.00    0.00      -0.89    0.09   -0.37
#  12    1.00   -1.21    0.11    0.06   -0.20    0.00    0.00      -0.24    0.14   -0.46
#  13    2.25   -1.41    0.17    0.04   -0.20    0.00    0.00       0.86    0.10   -0.45
#  14    0.03   -1.28    0.20    0.01   -0.15    0.00    0.00      -1.20    0.02   -0.40
#  15    3.35   -1.60    0.40    0.12   -0.16    0.00    0.00       2.12    0.36   -0.46
#  16   -0.13   -1.36    0.21   -0.27   -0.32    0.00    0.00      -1.86   -0.63   -0.75
#  17   -1.24   -1.81    0.44    0.56    0.49    0.00    0.00      -1.57    1.24    1.09
#  18   -1.99   -1.85    0.51    0.77    0.49    0.00    0.00      -2.07    1.52    0.98
#  19    0.99   -1.40    0.45   -0.11   -0.25    0.00    0.00      -0.32   -0.19   -0.43
#  20   -1.28   -1.28    0.23    0.06   -0.09    0.00    0.00      -2.36    0.10   -0.15
#  21   -1.40   -1.50    0.23    0.20   -0.14    0.00    0.00      -2.61    0.31   -0.22
#  22    0.99   -1.82    0.65   -0.09   -0.09    0.00    0.00      -0.37   -0.14   -0.14
#  23   -5.73   -2.20    0.51    0.84    0.82    0.00    0.00      -5.77    1.41    1.38
#  24    0.98   -2.30    0.91   -0.01   -0.08    0.00    0.00      -0.51   -0.02   -0.14
#  25   -1.78   -1.64    0.51   -0.07   -0.13    0.00    0.00      -3.11   -0.12   -0.23
#  26    0.91   -1.98    0.57   -0.83   -1.11    0.00    0.00      -2.42   -1.64   -2.20
#  27   -1.45   -3.36    2.49    1.30    1.16    0.00    0.00       0.14    2.35    2.09
#  28   -0.67   -4.04    3.72   -0.36   -1.61    0.00    0.00      -2.97   -0.71   -3.16
#  29    2.13   -2.08    0.64    0.67    0.90    0.00    0.00       2.26    1.55    2.08
#  30   -1.54   -1.37    0.20   -0.45   -0.87    0.00    0.00      -4.03   -1.12   -2.15
#  31    4.02   -0.94    0.08   -0.36    0.26    0.00    0.00       3.06   -1.13    0.83
#  32    0.24   -1.51    0.30    0.57   -0.19    0.00    0.00      -0.58    1.35   -0.44
#  33    0.22   -0.26    0.11    0.03   -0.04    0.00    0.00       0.07    0.16   -0.17
#  34    0.18   -0.31    0.07    0.02   -0.09    0.00    0.00      -0.11    0.08   -0.28
#  35    0.16   -0.59    0.42    0.14   -0.08    0.00    0.00       0.06    0.50   -0.27
#  36   -1.62   -0.99    1.75    0.16   -0.08    0.00    0.00      -0.79    0.51   -0.27
#  37   -1.65   -0.71    0.79    0.03   -0.09    0.00    0.00      -1.63    0.09   -0.28
#  38   -1.10   -0.26    0.03    0.06   -0.04    0.00    0.00      -1.31    0.23   -0.15
#  39   -0.30   -0.23    0.06    0.01   -0.06    0.00    0.00      -0.52    0.05   -0.28
#  40   -0.18   -0.27    0.05    0.01   -0.08    0.00    0.00      -0.47    0.04   -0.28
#  41   -0.06   -0.24    0.05    0.11   -0.07    0.00    0.00      -0.22    0.43   -0.28
#  42    0.16   -0.14    0.01    0.09   -0.02    0.00    0.00       0.09    0.62   -0.13
#  43   -0.21   -1.09    2.30    0.31   -0.09    0.00    0.00       1.23    0.95   -0.28
#  44   -0.77   -0.68    0.42    0.09   -0.10    0.00    0.00      -1.04    0.24   -0.27
#  45   -1.44   -0.31    0.05   -0.07   -0.10    0.00    0.00      -1.87   -0.19   -0.28
#  46   -3.75   -0.54    0.29    0.06   -0.11    0.00    0.00      -4.06    0.14   -0.28
#  47   -3.62   -0.70    0.49   -0.08   -0.10    0.00    0.00      -4.02   -0.23   -0.28
#  48    0.45   -0.37    0.05   -0.02   -0.13    0.00    0.00      -0.01   -0.04   -0.28
#  49    0.65   -0.96    1.64   -0.02   -0.13    0.00    0.00       1.17   -0.05   -0.28
#  50    1.32   -0.67    0.46   -0.07   -0.12    0.00    0.00       0.91   -0.15   -0.28
#  51    0.35   -0.74    0.51   -0.09   -0.13    0.00    0.00      -0.10   -0.19   -0.28
#  52    0.58   -0.58    0.11   -0.12   -0.14    0.00    0.00      -0.16   -0.21   -0.24
#  53    1.16   -0.50    0.14   -0.08   -0.13    0.00    0.00       0.58   -0.18   -0.28
#  54    1.22   -1.45    3.76   -0.05   -0.14    0.00    0.00       3.34   -0.10   -0.28
#  55    0.85   -1.39    1.95    0.09   -0.17    0.00    0.00       1.32    0.14   -0.28
#  56    1.52   -1.45    3.17   -0.01   -0.16    0.00    0.00       3.07   -0.01   -0.28
#  57    0.78   -0.47    0.14    0.13   -0.12    0.00    0.00       0.45    0.29   -0.28
#  58    0.71   -0.97    1.34    0.04   -0.13    0.00    0.00       0.99    0.08   -0.28
#  59   -0.40   -1.47    3.63    0.30   -0.14    0.00    0.00       1.92    0.58   -0.28
#  60   -1.67   -0.01    0.00    0.20    0.08    0.00    0.00      -1.40    1.50    0.59
#  61   -2.74   -0.01    0.00    0.11    0.06    0.00    0.00      -2.59    0.79    0.41

@<TRIPOS>MOLECULE
             1479        86
   61    65     0     0     0



@<TRIPOS>ATOM
      1 C1         24.8340    24.7281    62.1677 C.3        1          -0.1978
      2 C2         24.5781    24.4857    60.6789 C.3        1           0.1077
      3 C3         23.0729    24.3632    60.4335 C.3        1          -0.2058
      4 C4         25.1332    25.6587    59.8684 C.3        1          -0.1396
      5 O1         25.2265    23.2781    60.2745 O.3        1          -0.3044
      6 C5         24.8463    22.1341    60.9014 C.ar       1           0.1465
      7 C6         25.5107    21.7309    62.0641 C.ar       1          -0.1998
      8 C7         25.1525    20.5913    62.7136 C.ar       1          -0.0682
      9 C8         24.0997    19.8040    62.2126 C.ar       1          -0.0824
     10 C9         23.7065    18.6233    62.8609 C.ar       1          -0.0700
     11 C10        22.6669    17.8746    62.3398 C.ar       1          -0.0334
     12 C11        22.0053    18.2873    61.1713 C.ar       1          -0.0785
     13 C12        22.3708    19.4267    60.5295 C.ar       1          -0.1075
     14 C13        23.4246    20.2109    61.0339 C.ar       1          -0.0014
     15 C14        23.8165    21.3960    60.3907 C.ar       1          -0.1602
     16 C15        22.2476    16.6263    63.0198 C.2        1           0.1693
     17 N1         21.0574    16.3702    63.5097 N.2        1          -0.2297
     18 N2         21.0412    15.0905    64.0746 N.pl3      1          -0.3742
     19 C16        19.8832    14.4634    64.7165 C.3        1           0.1460
     20 C17        18.6936    15.4247    64.6736 C.3        1          -0.1056
     21 C18        17.6636    15.0127    65.7301 C.3        1          -0.1467
     22 C19        16.4432    15.9312    65.6271 C.3        1           0.0614
     23 O2         15.9018    15.8554    64.3068 O.3        1          -0.3816
     24 C20        16.8044    16.2739    63.2810 C.3        1           0.0616
     25 C21        18.0393    15.3691    63.2898 C.3        1          -0.1478
     26 C22        22.2702    14.5174    63.9351 C.ar       1           0.3744
     27 N3         22.7979    13.3433    64.2814 N.ar       1          -0.5716
     28 C23        24.0527    13.0642    64.0056 C.ar       1           0.3844
     29 N4         24.8520    13.9114    63.3818 N.ar       1          -0.6030
     30 C24        24.4181    15.1072    62.9961 C.ar       1           0.5185
     31 N5         25.2583    15.9888    62.3437 N.pl3      1          -0.8306
     32 C25        23.0821    15.4499    63.2631 C.ar       1          -0.3214
     33 H1         25.9064    24.8153    62.3426 H          1           0.0789
     34 H2         24.3396    25.6491    62.4762 H          1           0.0692
     35 H3         24.4386    23.8924    62.7452 H          1           0.0744
     36 H4         22.8905    24.1905    59.3729 H          1           0.0749
     37 H5         22.6774    23.5277    61.0111 H          1           0.0684
     38 H6         22.5783    25.2844    60.7419 H          1           0.0858
     39 H7         24.9508    25.4860    58.8077 H          1           0.0679
     40 H8         24.6385    26.5797    60.1769 H          1           0.0675
     41 H9         26.2055    25.7459    60.0432 H          1           0.0792
     42 H10        26.3197    22.3328    62.4511 H          1           0.1551
     43 H11        25.6745    20.2915    63.6103 H          1           0.1334
     44 H12        24.2121    18.3012    63.7592 H          1           0.1330
     45 H13        21.1958    17.6904    60.7780 H          1           0.1292
     46 H14        21.8528    19.7309    59.6320 H          1           0.1349
     47 H15        23.3085    21.7207    59.4946 H          1           0.1366
     48 H16        19.6276    13.5453    64.1877 H          1           0.1012
     49 H17        20.1247    14.2303    65.7535 H          1           0.0980
     50 H18        19.0374    16.4394    64.8741 H          1           0.0779
     51 H19        17.3584    13.9806    65.5580 H          1           0.0757
     52 H20        18.1044    15.1026    66.7230 H          1           0.0738
     53 H21        15.6890    15.6157    66.3479 H          1           0.0949
     54 H22        16.7419    16.9578    65.8391 H          1           0.0477
     55 H23        16.3104    16.2052    62.3119 H          1           0.0975
     56 H24        17.1079    17.3050    63.4623 H          1           0.0506
     57 H25        18.7488    15.7139    62.5375 H          1           0.0796
     58 H26        17.7417    14.3443    63.0685 H          1           0.0772
     59 H27        24.4464    12.1030    64.3013 H          1           0.2045
     60 H28        26.1774    15.7381    62.1617 H          1           0.4107
     61 H29        24.9290    16.8584    62.0676 H          1           0.4136
@<TRIPOS>BOND
     1    1    2 1
     2    1   33 1
     3    1   34 1
     4    1   35 1
     5    2    3 1
     6    2    4 1
     7    2    5 1
     8    3   36 1
     9    3   37 1
    10    3   38 1
    11    4   39 1
    12    4   40 1
    13    4   41 1
    14    5    6 1
    15    6   15 ar
    16    6    7 ar
    17    7    8 ar
    18    7   42 1
    19    8    9 ar
    20    8   43 1
    21    9   14 ar
    22    9   10 ar
    23   10   11 ar
    24   10   44 1
    25   11   12 ar
    26   11   16 1
    27   12   13 ar
    28   12   45 1
    29   13   14 ar
    30   13   46 1
    31   14   15 ar
    32   15   47 1
    33   16   32 1
    34   16   17 2
    35   17   18 1
    36   18   19 1
    37   18   26 1
    38   19   20 1
    39   19   48 1
    40   19   49 1
    41   20   25 1
    42   20   21 1
    43   20   50 1
    44   21   22 1
    45   21   51 1
    46   21   52 1
    47   22   23 1
    48   22   53 1
    49   22   54 1
    50   23   24 1
    51   24   25 1
    52   24   55 1
    53   24   56 1
    54   25   57 1
    55   25   58 1
    56   26   32 ar
    57   26   27 ar
    58   27   28 ar
    59   28   29 ar
    60   28   59 1
    61   29   30 ar
    62   30   31 1
    63   30   32 ar
    64   31   60 1
    65   31   61 1
##########                 Name:                 1479
##########          Protonation:                   86
##########               SMILES:   CC(C)(C)Oc1ccc2cc(ccc2c1)c3c4c(ncnc4n(n3)CC5CCOCC5)N
##########            Long Name:   y-2-naphthyl)-1-(tetrahydropyran-4-ylmethyl)pyrazolo[3,4-d]pyrimidin-4-amine
##########          FlexRecCode: 1
##########               Number:                   52
##########   Ligand Source File: /raid1/people/rgc/Examples/tdt/part3/ligand22set/build/ligand22set-0000001.db2.g
##########           GlobalRank: 20
##########                 Rank:                    2
##########               Setnum:                  252
##########             Matchnum:                35749
##########                Cloud:                    1
##########        Electrostatic:            -2.866962
##########        Van der Waals:           -28.040295
##########  Ligand Polar Desolv:             3.584323
########## Ligand Apolar Desolv:            -4.633630
##########      Internal Energy:             0.000000
##########      Receptor Energy: 0.0
########## Receptor Desolvation:             0.000000
########## Receptor Hydrophobic:             0.000000
##########         Total Energy: -31.96
##########        Ligand Charge:             0.000000
##########            Arbitrary:    +999.9990
##########     heavy atom count:   32
##########           pose count:    6
##########        Ligand Energy:             0.000000
# num electro vdwattr vdwrepu polsolv apolsol rdesolv rhydroe totalscore fullpol fullapo
#   1    1.21   -0.69    0.17   -0.12   -0.04    0.00    0.00       0.54   -0.48   -0.17
#   2   -0.47   -0.48    0.03    0.03   -0.02    0.00    0.00      -0.90    0.11   -0.07
#   3    0.16   -0.46    0.02   -0.16   -0.05    0.00    0.00      -0.48   -0.54   -0.16
#   4    0.63   -0.94    0.20   -0.08   -0.06    0.00    0.00      -0.26   -0.23   -0.18
#   5    2.07   -0.56    0.02    0.18    0.23    0.00    0.00       1.94    0.68    0.86
#   6   -1.60   -0.93    0.12   -0.05   -0.08    0.00    0.00      -2.54   -0.18   -0.28
#   7    0.88   -1.07    0.18   -0.07   -0.07    0.00    0.00      -0.14   -0.27   -0.26
#   8    0.38   -2.06    0.90   -0.04   -0.14    0.00    0.00      -0.95   -0.13   -0.46
#   9    0.92   -1.40    0.24    0.00   -0.13    0.00    0.00      -0.38   -0.01   -0.40
#  10    0.53   -1.53    0.23   -0.01   -0.13    0.00    0.00      -0.90   -0.02   -0.33
#  11    0.23   -1.08    0.07    0.04   -0.15    0.00    0.00      -0.89    0.09   -0.37
#  12    1.00   -1.21    0.11    0.06   -0.20    0.00    0.00      -0.24    0.14   -0.46
#  13    2.25   -1.41    0.17    0.04   -0.20    0.00    0.00       0.86    0.10   -0.45
#  14    0.03   -1.28    0.20    0.01   -0.15    0.00    0.00      -1.20    0.02   -0.40
#  15    3.35   -1.60    0.40    0.12   -0.16    0.00    0.00       2.12    0.36   -0.46
#  16   -0.13   -1.36    0.21   -0.27   -0.32    0.00    0.00      -1.86   -0.63   -0.75
#  17   -1.24   -1.81    0.44    0.56    0.49    0.00    0.00      -1.57    1.24    1.09
#  18   -1.99   -1.85    0.51    0.77    0.49    0.00    0.00      -2.07    1.52    0.98
#  19    0.99   -1.40    0.45   -0.11   -0.25    0.00    0.00      -0.32   -0.19   -0.43
#  20   -1.28   -1.28    0.23    0.06   -0.09    0.00    0.00      -2.36    0.10   -0.15
#  21   -1.40   -1.50    0.23    0.20   -0.14    0.00    0.00      -2.61    0.31   -0.22
#  22    0.99   -1.82    0.65   -0.09   -0.09    0.00    0.00      -0.37   -0.14   -0.14
#  23   -5.73   -2.20    0.51    0.84    0.82    0.00    0.00      -5.77    1.41    1.38
#  24    0.98   -2.30    0.91   -0.01   -0.08    0.00    0.00      -0.51   -0.02   -0.14
#  25   -1.78   -1.64    0.51   -0.07   -0.13    0.00    0.00      -3.11   -0.12   -0.23
#  26    0.91   -1.98    0.57   -0.83   -1.11    0.00    0.00      -2.42   -1.64   -2.20
#  27   -1.45   -3.36    2.49    1.30    1.16    0.00    0.00       0.14    2.35    2.09
#  28   -0.67   -4.04    3.72   -0.36   -1.61    0.00    0.00      -2.97   -0.71   -3.16
#  29    2.13   -2.08    0.64    0.67    0.90    0.00    0.00       2.26    1.55    2.08
#  30   -1.54   -1.37    0.20   -0.45   -0.87    0.00    0.00      -4.03   -1.12   -2.15
#  31    4.02   -0.94    0.08   -0.36    0.26    0.00    0.00       3.06   -1.13    0.83
#  32    0.24   -1.51    0.30    0.57   -0.19    0.00    0.00      -0.58    1.35   -0.44
#  33   -1.30   -0.65    1.23    0.04   -0.04    0.00    0.00      -0.72    0.16   -0.17
#  34   -0.03   -0.29    0.11    0.02   -0.06    0.00    0.00      -0.25    0.08   -0.28
#  35   -0.35   -0.08    0.00    0.04   -0.02    0.00    0.00      -0.41    0.50   -0.27
#  36   -0.03   -0.18    0.01    0.12   -0.06    0.00    0.00      -0.14    0.51   -0.27
#  37    0.03   -0.11    0.01    0.01   -0.03    0.00    0.00      -0.10    0.09   -0.28
#  38    0.01   -0.15    0.01    0.04   -0.03    0.00    0.00      -0.13    0.23   -0.15
#  39   -0.29   -0.21    0.02    0.01   -0.07    0.00    0.00      -0.54    0.05   -0.28
#  40   -0.22   -0.58    0.60    0.01   -0.09    0.00    0.00      -0.28    0.04   -0.28
#  41   -0.45   -0.48    0.17    0.15   -0.09    0.00    0.00      -0.71    0.43   -0.28
#  42    0.16   -0.14    0.01    0.09   -0.02    0.00    0.00       0.09    0.62   -0.13
#  43   -0.21   -1.09    2.30    0.31   -0.09    0.00    0.00       1.23    0.95   -0.28
#  44   -0.77   -0.68    0.42    0.09   -0.10    0.00    0.00      -1.04    0.24   -0.27
#  45   -1.44   -0.31    0.05   -0.07   -0.10    0.00    0.00      -1.87   -0.19   -0.28
#  46   -3.75   -0.54    0.29    0.06   -0.11    0.00    0.00      -4.06    0.14   -0.28
#  47   -3.62   -0.70    0.49   -0.08   -0.10    0.00    0.00      -4.02   -0.23   -0.28
#  48    0.45   -0.37    0.05   -0.02   -0.13    0.00    0.00      -0.01   -0.04   -0.28
#  49    0.65   -0.96    1.64   -0.02   -0.13    0.00    0.00       1.17   -0.05   -0.28
#  50    1.32   -0.67    0.46   -0.07   -0.12    0.00    0.00       0.91   -0.15   -0.28
#  51    0.35   -0.74    0.51   -0.09   -0.13    0.00    0.00      -0.10   -0.19   -0.28
#  52    0.58   -0.58    0.11   -0.12   -0.14    0.00    0.00      -0.16   -0.21   -0.24
#  53    1.16   -0.50    0.14   -0.08   -0.13    0.00    0.00       0.58   -0.18   -0.28
#  54    1.22   -1.45    3.76   -0.05   -0.14    0.00    0.00       3.34   -0.10   -0.28
#  55    0.85   -1.39    1.95    0.09   -0.17    0.00    0.00       1.32    0.14   -0.28
#  56    1.52   -1.45    3.17   -0.01   -0.16    0.00    0.00       3.07   -0.01   -0.28
#  57    0.78   -0.47    0.14    0.13   -0.12    0.00    0.00       0.45    0.29   -0.28
#  58    0.71   -0.97    1.34    0.04   -0.13    0.00    0.00       0.99    0.08   -0.28
#  59   -0.40   -1.47    3.63    0.30   -0.14    0.00    0.00       1.92    0.58   -0.28
#  60   -1.67   -0.01    0.00    0.20    0.08    0.00    0.00      -1.40    1.50    0.59
#  61   -2.74   -0.01    0.00    0.11    0.06    0.00    0.00      -2.59    0.79    0.41

@<TRIPOS>MOLECULE
             1479        86
   61    65     0     0     0



@<TRIPOS>ATOM
      1 C1         26.6661    21.6995    59.1448 C.3        1          -0.1978
      2 C2         26.2380    23.1628    59.2716 C.3        1           0.1077
      3 C3         27.4460    24.0155    59.6651 C.3        1          -0.2058
      4 C4         25.6847    23.6503    57.9309 C.3        1          -0.1396
      5 O1         25.2265    23.2781    60.2745 O.3        1          -0.3044
      6 C5         24.8463    22.1341    60.9014 C.ar       1           0.1465
      7 C6         25.5107    21.7309    62.0641 C.ar       1          -0.1998
      8 C7         25.1525    20.5913    62.7136 C.ar       1          -0.0682
      9 C8         24.0997    19.8040    62.2126 C.ar       1          -0.0824
     10 C9         23.7065    18.6233    62.8609 C.ar       1          -0.0700
     11 C10        22.6669    17.8746    62.3398 C.ar       1          -0.0334
     12 C11        22.0053    18.2873    61.1713 C.ar       1          -0.0785
     13 C12        22.3708    19.4267    60.5295 C.ar       1          -0.1075
     14 C13        23.4246    20.2109    61.0339 C.ar       1          -0.0014
     15 C14        23.8165    21.3960    60.3907 C.ar       1          -0.1602
     16 C15        22.2476    16.6263    63.0198 C.2        1           0.1693
     17 N1         21.0574    16.3702    63.5097 N.2        1          -0.2297
     18 N2         21.0412    15.0905    64.0746 N.pl3      1          -0.3742
     19 C16        19.8832    14.4634    64.7165 C.3        1           0.1460
     20 C17        18.6936    15.4247    64.6736 C.3        1          -0.1056
     21 C18        17.6636    15.0127    65.7301 C.3        1          -0.1467
     22 C19        16.4432    15.9312    65.6271 C.3        1           0.0614
     23 O2         15.9018    15.8554    64.3068 O.3        1          -0.3816
     24 C20        16.8044    16.2739    63.2810 C.3        1           0.0616
     25 C21        18.0393    15.3691    63.2898 C.3        1          -0.1478
     26 C22        22.2702    14.5174    63.9351 C.ar       1           0.3744
     27 N3         22.7979    13.3433    64.2814 N.ar       1          -0.5716
     28 C23        24.0527    13.0642    64.0056 C.ar       1           0.3844
     29 N4         24.8520    13.9114    63.3818 N.ar       1          -0.6030
     30 C24        24.4181    15.1072    62.9961 C.ar       1           0.5185
     31 N5         25.2583    15.9888    62.3437 N.pl3      1          -0.8306
     32 C25        23.0821    15.4499    63.2631 C.ar       1          -0.3214
     33 H1         25.8054    21.0921    58.8646 H          1           0.0789
     34 H2         27.4375    21.6115    58.3798 H          1           0.0692
     35 H3         27.0603    21.3522    60.1000 H          1           0.0744
     36 H4         27.1410    25.0579    59.7554 H          1           0.0749
     37 H5         27.8403    23.6681    60.6199 H          1           0.0684
     38 H6         28.2173    23.9276    58.8999 H          1           0.0858
     39 H7         25.3796    24.6929    58.0213 H          1           0.0679
     40 H8         26.4561    23.5625    57.1660 H          1           0.0675
     41 H9         24.8240    23.0429    57.6507 H          1           0.0792
     42 H10        26.3197    22.3328    62.4511 H          1           0.1551
     43 H11        25.6745    20.2915    63.6103 H          1           0.1334
     44 H12        24.2121    18.3012    63.7592 H          1           0.1330
     45 H13        21.1958    17.6904    60.7780 H          1           0.1292
     46 H14        21.8528    19.7309    59.6320 H          1           0.1349
     47 H15        23.3085    21.7207    59.4946 H          1           0.1366
     48 H16        19.6276    13.5453    64.1877 H          1           0.1012
     49 H17        20.1247    14.2303    65.7535 H          1           0.0980
     50 H18        19.0374    16.4394    64.8741 H          1           0.0779
     51 H19        17.3584    13.9806    65.5580 H          1           0.0757
     52 H20        18.1044    15.1026    66.7230 H          1           0.0738
     53 H21        15.6890    15.6157    66.3479 H          1           0.0949
     54 H22        16.7419    16.9578    65.8391 H          1           0.0477
     55 H23        16.3104    16.2052    62.3119 H          1           0.0975
     56 H24        17.1079    17.3050    63.4623 H          1           0.0506
     57 H25        18.7488    15.7139    62.5375 H          1           0.0796
     58 H26        17.7417    14.3443    63.0685 H          1           0.0772
     59 H27        24.4464    12.1030    64.3013 H          1           0.2045
     60 H28        26.1774    15.7381    62.1617 H          1           0.4107
     61 H29        24.9290    16.8584    62.0676 H          1           0.4136
@<TRIPOS>BOND
     1    1    2 1
     2    1   33 1
     3    1   34 1
     4    1   35 1
     5    2    3 1
     6    2    4 1
     7    2    5 1
     8    3   36 1
     9    3   37 1
    10    3   38 1
    11    4   39 1
    12    4   40 1
    13    4   41 1
    14    5    6 1
    15    6   15 ar
    16    6    7 ar
    17    7    8 ar
    18    7   42 1
    19    8    9 ar
    20    8   43 1
    21    9   14 ar
    22    9   10 ar
    23   10   11 ar
    24   10   44 1
    25   11   12 ar
    26   11   16 1
    27   12   13 ar
    28   12   45 1
    29   13   14 ar
    30   13   46 1
    31   14   15 ar
    32   15   47 1
    33   16   32 1
    34   16   17 2
    35   17   18 1
    36   18   19 1
    37   18   26 1
    38   19   20 1
    39   19   48 1
    40   19   49 1
    41   20   25 1
    42   20   21 1
    43   20   50 1
    44   21   22 1
    45   21   51 1
    46   21   52 1
    47   22   23 1
    48   22   53 1
    49   22   54 1
    50   23   24 1
    51   24   25 1
    52   24   55 1
    53   24   56 1
    54   25   57 1
    55   25   58 1
    56   26   32 ar
    57   26   27 ar
    58   27   28 ar
    59   28   29 ar
    60   28   59 1
    61   29   30 ar
    62   30   31 1
    63   30   32 ar
    64   31   60 1
    65   31   61 1
##########                 Name:                 1479
##########          Protonation:                   86
##########               SMILES:   CC(C)(C)Oc1ccc2cc(ccc2c1)c3c4c(ncnc4n(n3)CC5CCOCC5)N
##########            Long Name:   y-2-naphthyl)-1-(tetrahydropyran-4-ylmethyl)pyrazolo[3,4-d]pyrimidin-4-amine
##########          FlexRecCode: 1
##########               Number:                   52
##########   Ligand Source File: /raid1/people/rgc/Examples/tdt/part3/ligand22set/build/ligand22set-0000001.db2.g
##########           GlobalRank: 20
##########                 Rank:                    3
##########               Setnum:                  145
##########             Matchnum:                49197
##########                Cloud:                    1
##########        Electrostatic:            -3.427919
##########        Van der Waals:           -26.334343
##########  Ligand Polar Desolv:             3.118870
########## Ligand Apolar Desolv:            -3.941169
##########      Internal Energy:             0.000000
##########      Receptor Energy: 0.0
########## Receptor Desolvation:             0.000000
########## Receptor Hydrophobic:             0.000000
##########         Total Energy: -30.58
##########        Ligand Charge:             0.000000
##########            Arbitrary:    +999.9990
##########     heavy atom count:   32
##########           pose count:    6
##########        Ligand Energy:             0.000000
# num electro vdwattr vdwrepu polsolv apolsol rdesolv rhydroe totalscore fullpol fullapo
#   1   -0.33   -1.21    0.32   -0.19   -0.07    0.00    0.00      -1.47   -0.48   -0.17
#   2   -0.62   -0.68    0.05    0.04   -0.03    0.00    0.00      -1.24    0.11   -0.07
#   3    3.72   -1.51    1.00   -0.20   -0.06    0.00    0.00       2.95   -0.54   -0.16
#   4    0.56   -0.97    0.16   -0.10   -0.08    0.00    0.00      -0.43   -0.23   -0.18
#   5    1.45   -0.62    0.03    0.20    0.25    0.00    0.00       1.31    0.68    0.86
#   6   -0.97   -0.89    0.11   -0.05   -0.08    0.00    0.00      -1.88   -0.18   -0.28
#   7   -0.21   -1.08    0.19   -0.07   -0.07    0.00    0.00      -1.25   -0.27   -0.26
#   8    0.08   -1.74    0.67   -0.04   -0.12    0.00    0.00      -1.15   -0.13   -0.46
#   9    0.74   -1.27    0.24    0.00   -0.11    0.00    0.00      -0.41   -0.01   -0.40
#  10    0.57   -1.66    0.56   -0.01   -0.10    0.00    0.00      -0.63   -0.02   -0.33
#  11    0.33   -0.88    0.06    0.03   -0.12    0.00    0.00      -0.58    0.09   -0.37
#  12    1.31   -1.03    0.09    0.05   -0.17    0.00    0.00       0.25    0.14   -0.46
#  13    2.55   -1.68    0.64    0.04   -0.17    0.00    0.00       1.38    0.10   -0.45
#  14    0.02   -1.16    0.19    0.01   -0.13    0.00    0.00      -1.08    0.02   -0.40
#  15    2.54   -1.32    0.25    0.11   -0.14    0.00    0.00       1.44    0.36   -0.46
#  16   -1.05   -1.05    0.12   -0.20   -0.24    0.00    0.00      -2.43   -0.63   -0.75
#  17    1.17   -1.19    0.22    0.37    0.33    0.00    0.00       0.90    1.24    1.09
#  18    1.06   -1.46    0.24    0.59    0.38    0.00    0.00       0.81    1.52    0.98
#  19   -0.37   -1.22    0.36   -0.08   -0.17    0.00    0.00      -1.48   -0.19   -0.43
#  20    0.16   -0.65    0.09    0.03   -0.05    0.00    0.00      -0.42    0.10   -0.15
#  21    0.20   -0.60    0.05    0.09   -0.06    0.00    0.00      -0.32    0.31   -0.22
#  22    0.01   -0.34    0.02   -0.03   -0.03    0.00    0.00      -0.36   -0.14   -0.14
#  23   -0.27   -0.35    0.02    0.21    0.21    0.00    0.00      -0.19    1.41    1.38
#  24    0.05   -0.27    0.01    0.00   -0.02    0.00    0.00      -0.24   -0.02   -0.14
#  25   -0.03   -0.68    0.20   -0.03   -0.06    0.00    0.00      -0.61   -0.12   -0.23
#  26   -0.48   -1.60    0.32   -0.71   -0.95    0.00    0.00      -3.42   -1.64   -2.20
#  27   -0.69   -2.01    0.50    1.20    1.06    0.00    0.00       0.05    2.35    2.09
#  28    1.34   -1.73    0.36   -0.40   -1.77    0.00    0.00      -2.20   -0.71   -3.16
#  29   -2.74   -1.59    0.37    0.72    0.97    0.00    0.00      -2.28    1.55    2.08
#  30    0.26   -1.48    0.36   -0.47   -0.91    0.00    0.00      -2.24   -1.12   -2.15
#  31    1.36   -1.75    0.59   -0.51    0.38    0.00    0.00       0.07   -1.13    0.83
#  32    0.83   -1.27    0.20    0.53   -0.17    0.00    0.00       0.12    1.35   -0.44
#  33    0.22   -0.51    0.63    0.05   -0.05    0.00    0.00       0.33    0.16   -0.17
#  34    0.07   -0.40    0.09    0.03   -0.11    0.00    0.00      -0.31    0.08   -0.28
#  35    0.17   -0.79    0.76    0.16   -0.09    0.00    0.00       0.21    0.50   -0.27
#  36   -1.69   -1.07    2.32    0.15   -0.08    0.00    0.00      -0.37    0.51   -0.27
#  37   -1.70   -0.71    0.66    0.03   -0.09    0.00    0.00      -1.81    0.09   -0.28
#  38   -1.31   -0.33    0.06    0.07   -0.05    0.00    0.00      -1.55    0.23   -0.15
#  39   -0.35   -0.31    0.10    0.01   -0.08    0.00    0.00      -0.63    0.05   -0.28
#  40   -0.38   -0.44    0.23    0.01   -0.09    0.00    0.00      -0.67    0.04   -0.28
#  41   -0.08   -0.42    0.15    0.16   -0.11    0.00    0.00      -0.30    0.43   -0.28
#  42    0.42   -0.18    0.02    0.12   -0.03    0.00    0.00       0.35    0.62   -0.13
#  43    0.30   -0.60    0.63    0.25   -0.07    0.00    0.00       0.51    0.95   -0.28
#  44   -1.07   -1.28    3.48    0.07   -0.08    0.00    0.00       1.12    0.24   -0.27
#  45   -2.18   -0.29    0.05   -0.06   -0.08    0.00    0.00      -2.55   -0.19   -0.28
#  46   -4.52   -0.85    1.05    0.05   -0.11    0.00    0.00      -4.36    0.14   -0.28
#  47   -2.59   -0.54    0.28   -0.07   -0.09    0.00    0.00      -3.00   -0.23   -0.28
#  48    0.01   -0.97    1.65   -0.02   -0.11    0.00    0.00       0.57   -0.04   -0.28
#  49   -0.66   -0.64    0.79   -0.02   -0.10    0.00    0.00      -0.63   -0.05   -0.28
#  50   -0.16   -0.23    0.04   -0.03   -0.05    0.00    0.00      -0.43   -0.15   -0.28
#  51   -0.12   -0.42    0.13   -0.06   -0.08    0.00    0.00      -0.55   -0.19   -0.28
#  52   -0.15   -0.16    0.01   -0.04   -0.04    0.00    0.00      -0.38   -0.21   -0.24
#  53    0.09   -0.14    0.01   -0.03   -0.04    0.00    0.00      -0.11   -0.18   -0.28
#  54    0.00   -0.05    0.00    0.00   -0.01    0.00    0.00      -0.07   -0.10   -0.28
#  55    0.11   -0.06    0.00    0.01   -0.02    0.00    0.00       0.04    0.14   -0.28
#  56    0.05   -0.07    0.00    0.00   -0.02    0.00    0.00      -0.03   -0.01   -0.28
#  57    0.09   -0.62    1.46    0.07   -0.07    0.00    0.00       0.92    0.29   -0.28
#  58    0.01   -0.20    0.02    0.02   -0.06    0.00    0.00      -0.21    0.08   -0.28
#  59    0.87   -0.33    0.04    0.29   -0.14    0.00    0.00       0.73    0.58   -0.28
#  60    1.91   -0.07    0.01    0.54    0.21    0.00    0.00       2.60    1.50    0.59
#  61   -3.32   -0.02    0.00    0.20    0.10    0.00    0.00      -3.03    0.79    0.41

@<TRIPOS>MOLECULE
             1479        86
   61    65     0     0     0



@<TRIPOS>ATOM
      1 C1         23.8651    25.5732    62.4125 C.3        1          -0.1978
      2 C2         23.8142    25.4043    60.8927 C.3        1           0.1077
      3 C3         22.4709    24.7912    60.4923 C.3        1          -0.2058
      4 C4         23.9713    26.7707    60.2223 C.3        1          -0.1396
      5 O1         24.8748    24.5433    60.4734 O.3        1          -0.3044
      6 C5         24.8832    23.2827    60.9807 C.ar       1           0.1465
      7 C6         25.5662    23.0235    62.1732 C.ar       1          -0.1998
      8 C7         25.5917    21.7725    62.7055 C.ar       1          -0.0682
      9 C8         24.9235    20.7216    62.0509 C.ar       1          -0.0824
     10 C9         24.9313    19.4203    62.5756 C.ar       1          -0.0700
     11 C10        24.2630    18.4121    61.9050 C.ar       1          -0.0334
     12 C11        23.5797    18.6818    60.7076 C.ar       1          -0.0785
     13 C12        23.5603    19.9344    60.1838 C.ar       1          -0.1075
     14 C13        24.2303    20.9822    60.8415 C.ar       1          -0.0014
     15 C14        24.2195    22.2868    60.3221 C.ar       1          -0.1602
     16 C15        24.2682    17.0355    62.4541 C.2        1           0.1693
     17 N1         25.3261    16.2922    62.6784 N.2        1          -0.2297
     18 N2         24.9355    15.0544    63.2001 N.pl3      1          -0.3742
     19 C16        25.8449    13.9677    63.5719 C.3        1           0.1460
     20 C17        27.2887    14.3958    63.3015 C.3        1          -0.1056
     21 C18        27.6037    14.2242    61.8122 C.3        1          -0.1467
     22 C19        29.0721    14.5797    61.5649 C.3        1           0.0614
     23 O2         29.9050    13.7505    62.3778 O.3        1          -0.3816
     24 C20        29.6879    13.9034    63.7819 C.3        1           0.0616
     25 C21        28.2442    13.5206    64.1183 C.3        1          -0.1478
     26 C22        23.5772    15.0162    63.3088 C.ar       1           0.3744
     27 N3         22.6994    14.1068    63.7323 N.ar       1          -0.5716
     28 C23        21.4096    14.3618    63.7187 C.ar       1           0.3844
     29 N4         20.9135    15.5102    63.2933 N.ar       1          -0.6030
     30 C24        21.7084    16.4797    62.8515 C.ar       1           0.5185
     31 N5         21.1840    17.6787    62.4084 N.pl3      1          -0.8306
     32 C25        23.0955    16.2570    62.8520 C.ar       1          -0.3214
     33 H1         24.8222    26.0100    62.6978 H          1           0.0789
     34 H2         23.0562    26.2300    62.7324 H          1           0.0692
     35 H3         23.7532    24.5998    62.8901 H          1           0.0744
     36 H4         22.4347    24.6709    59.4096 H          1           0.0749
     37 H5         22.3589    23.8180    60.9701 H          1           0.0684
     38 H6         21.6620    25.4482    60.8121 H          1           0.0858
     39 H7         23.9351    26.6504    59.1395 H          1           0.0679
     40 H8         23.1623    27.4275    60.5421 H          1           0.0675
     41 H9         24.9284    27.2074    60.5075 H          1           0.0792
     42 H10        26.0805    23.8279    62.6781 H          1           0.1551
     43 H11        26.1234    21.5862    63.6269 H          1           0.1334
     44 H12        25.4553    19.2075    63.4956 H          1           0.1330
     45 H13        23.0634    17.8826    60.1968 H          1           0.1292
     46 H14        23.0309    20.1262    59.2622 H          1           0.1349
     47 H15        23.6921    22.5010    59.4043 H          1           0.1366
     48 H16        25.7256    13.7405    64.6312 H          1           0.1012
     49 H17        25.6122    13.0814    62.9817 H          1           0.0980
     50 H18        27.4184    15.4402    63.5849 H          1           0.0779
     51 H19        27.4251    13.1897    61.5190 H          1           0.0757
     52 H20        26.9651    14.8853    61.2263 H          1           0.0738
     53 H21        29.3132    14.4183    60.5142 H          1           0.0949
     54 H22        29.2408    15.6259    61.8202 H          1           0.0477
     55 H23        30.3726    13.2548    64.3284 H          1           0.0975
     56 H24        29.8647    14.9407    64.0663 H          1           0.0506
     57 H25        28.0639    13.6787    65.1816 H          1           0.0796
     58 H26        28.0785    12.4719    63.8717 H          1           0.0772
     59 H27        20.7277    13.6013    64.0693 H          1           0.2045
     60 H28        20.2246    17.8211    62.4173 H          1           0.4107
     61 H29        21.7752    18.3779    62.0885 H          1           0.4136
@<TRIPOS>BOND
     1    1    2 1
     2    1   33 1
     3    1   34 1
     4    1   35 1
     5    2    3 1
     6    2    4 1
     7    2    5 1
     8    3   36 1
     9    3   37 1
    10    3   38 1
    11    4   39 1
    12    4   40 1
    13    4   41 1
    14    5    6 1
    15    6   15 ar
    16    6    7 ar
    17    7    8 ar
    18    7   42 1
    19    8    9 ar
    20    8   43 1
    21    9   14 ar
    22    9   10 ar
    23   10   11 ar
    24   10   44 1
    25   11   12 ar
    26   11   16 1
    27   12   13 ar
    28   12   45 1
    29   13   14 ar
    30   13   46 1
    31   14   15 ar
    32   15   47 1
    33   16   32 1
    34   16   17 2
    35   17   18 1
    36   18   19 1
    37   18   26 1
    38   19   20 1
    39   19   48 1
    40   19   49 1
    41   20   25 1
    42   20   21 1
    43   20   50 1
    44   21   22 1
    45   21   51 1
    46   21   52 1
    47   22   23 1
    48   22   53 1
    49   22   54 1
    50   23   24 1
    51   24   25 1
    52   24   55 1
    53   24   56 1
    54   25   57 1
    55   25   58 1
    56   26   32 ar
    57   26   27 ar
    58   27   28 ar
    59   28   29 ar
    60   28   59 1
    61   29   30 ar
    62   30   31 1
    63   30   32 ar
    64   31   60 1
    65   31   61 1
##########                 Name:                 1479
##########          Protonation:                   86
##########               SMILES:   CC(C)(C)Oc1ccc2cc(ccc2c1)c3c4c(ncnc4n(n3)CC5CCOCC5)N
##########            Long Name:   y-2-naphthyl)-1-(tetrahydropyran-4-ylmethyl)pyrazolo[3,4-d]pyrimidin-4-amine
##########          FlexRecCode: 1
##########               Number:                   52
##########   Ligand Source File: /raid1/people/rgc/Examples/tdt/part3/ligand22set/build/ligand22set-0000001.db2.g
##########           GlobalRank: 20
##########                 Rank:                    4
##########               Setnum:                  260
##########             Matchnum:                61124
##########                Cloud:                    1
##########        Electrostatic:            -0.938980
##########        Van der Waals:           -28.221727
##########  Ligand Polar Desolv:             3.115034
########## Ligand Apolar Desolv:            -3.613253
##########      Internal Energy:             0.000000
##########      Receptor Energy: 0.0
########## Receptor Desolvation:             0.000000
########## Receptor Hydrophobic:             0.000000
##########         Total Energy: -29.66
##########        Ligand Charge:             0.000000
##########            Arbitrary:    +999.9990
##########     heavy atom count:   32
##########           pose count:    6
##########        Ligand Energy:             0.000000
# num electro vdwattr vdwrepu polsolv apolsol rdesolv rhydroe totalscore fullpol fullapo
#   1    0.62   -0.70    0.15   -0.13   -0.05    0.00    0.00      -0.10   -0.48   -0.17
#   2   -0.43   -0.53    0.03    0.03   -0.02    0.00    0.00      -0.91    0.11   -0.07
#   3    0.23   -0.75    0.13   -0.20   -0.06    0.00    0.00      -0.64   -0.54   -0.16
#   4    0.65   -0.92    0.14   -0.09   -0.07    0.00    0.00      -0.29   -0.23   -0.18
#   5    2.08   -0.61    0.03    0.19    0.24    0.00    0.00       1.94    0.68    0.86
#   6   -1.40   -0.79    0.06   -0.05   -0.07    0.00    0.00      -2.25   -0.18   -0.28
#   7    0.64   -0.68    0.05   -0.06   -0.06    0.00    0.00      -0.11   -0.27   -0.26
#   8    0.27   -0.94    0.14   -0.03   -0.11    0.00    0.00      -0.67   -0.13   -0.46
#   9    0.81   -0.83    0.07    0.00   -0.10    0.00    0.00      -0.06   -0.01   -0.40
#  10    0.61   -1.23    0.42   -0.01   -0.09    0.00    0.00      -0.30   -0.02   -0.33
#  11    0.30   -0.81    0.05    0.03   -0.11    0.00    0.00      -0.54    0.09   -0.37
#  12    1.12   -1.20    0.19    0.05   -0.16    0.00    0.00       0.01    0.14   -0.46
#  13    2.43   -1.68    0.61    0.04   -0.17    0.00    0.00       1.22    0.10   -0.45
#  14    0.03   -1.12    0.23    0.01   -0.12    0.00    0.00      -0.98    0.02   -0.40
#  15    3.09   -1.59    0.62    0.11   -0.15    0.00    0.00       2.09    0.36   -0.46
#  16   -0.90   -0.99    0.10   -0.20   -0.24    0.00    0.00      -2.24   -0.63   -0.75
#  17    0.95   -0.91    0.06    0.42    0.37    0.00    0.00       0.90    1.24    1.09
#  18    1.45   -1.48    0.25    0.63    0.40    0.00    0.00       1.25    1.52    0.98
#  19   -0.56   -1.41    0.67   -0.08   -0.17    0.00    0.00      -1.55   -0.19   -0.43
#  20    0.07   -0.83    0.27    0.03   -0.05    0.00    0.00      -0.51    0.10   -0.15
#  21    0.08   -0.39    0.02    0.07   -0.05    0.00    0.00      -0.27    0.31   -0.22
#  22    0.04   -0.22    0.01   -0.02   -0.02    0.00    0.00      -0.21   -0.14   -0.14
#  23   -0.42   -0.26    0.01    0.19    0.18    0.00    0.00      -0.30    1.41    1.38
#  24    0.08   -0.48    0.08    0.00   -0.03    0.00    0.00      -0.36   -0.02   -0.14
#  25   -0.09   -0.77    0.25   -0.04   -0.07    0.00    0.00      -0.72   -0.12   -0.23
#  26   -0.90   -1.85    0.45   -0.74   -0.99    0.00    0.00      -4.03   -1.64   -2.20
#  27   -0.28   -2.82    1.15    1.24    1.11    0.00    0.00       0.40    2.35    2.09
#  28    1.26   -2.17    0.53   -0.41   -1.81    0.00    0.00      -2.58   -0.71   -3.16
#  29   -2.19   -1.63    0.33    0.81    1.09    0.00    0.00      -1.58    1.55    2.08
#  30    0.28   -1.57    0.57   -0.47   -0.90    0.00    0.00      -2.10   -1.12   -2.15
#  31    0.12   -1.44    0.25   -0.49    0.36    0.00    0.00      -1.20   -1.13    0.83
#  32    0.76   -1.39    0.31    0.53   -0.17    0.00    0.00       0.04    1.35   -0.44
#  33   -0.50   -0.42    0.26    0.04   -0.04    0.00    0.00      -0.67    0.16   -0.17
#  34   -0.03   -0.39    0.23    0.02   -0.07    0.00    0.00      -0.25    0.08   -0.28
#  35   -0.16   -0.09    0.00    0.05   -0.03    0.00    0.00      -0.23    0.50   -0.27
#  36   -0.07   -0.35    0.17    0.15   -0.08    0.00    0.00      -0.18    0.51   -0.27
#  37    0.03   -0.18    0.02    0.02   -0.06    0.00    0.00      -0.18    0.09   -0.28
#  38   -0.06   -0.30    0.06    0.07   -0.05    0.00    0.00      -0.27    0.23   -0.15
#  39   -0.34   -0.27    0.05    0.01   -0.07    0.00    0.00      -0.61    0.05   -0.28
#  40   -0.25   -0.33    0.06    0.01   -0.09    0.00    0.00      -0.60    0.04   -0.28
#  41   -0.45   -0.47    0.18    0.15   -0.10    0.00    0.00      -0.68    0.43   -0.28
#  42    0.20   -0.11    0.00    0.07   -0.01    0.00    0.00       0.16    0.62   -0.13
#  43    0.04   -0.28    0.09    0.20   -0.06    0.00    0.00      -0.01    0.95   -0.28
#  44   -1.37   -1.00    3.31    0.06   -0.06    0.00    0.00       0.93    0.24   -0.27
#  45   -1.74   -0.51    0.39   -0.06   -0.09    0.00    0.00      -2.02   -0.19   -0.28
#  46   -4.22   -0.68    0.51    0.06   -0.11    0.00    0.00      -4.45    0.14   -0.28
#  47   -3.42   -0.76    0.68   -0.08   -0.10    0.00    0.00      -3.68   -0.23   -0.28
#  48   -0.37   -0.60    0.32   -0.02   -0.11    0.00    0.00      -0.78   -0.04   -0.28
#  49   -0.52   -0.75    0.81   -0.02   -0.10    0.00    0.00      -0.58   -0.05   -0.28
#  50    0.00   -0.55    0.63   -0.04   -0.08    0.00    0.00      -0.04   -0.15   -0.28
#  51   -0.02   -0.18    0.02   -0.03   -0.04    0.00    0.00      -0.25   -0.19   -0.28
#  52   -0.10   -0.09    0.00   -0.02   -0.02    0.00    0.00      -0.23   -0.21   -0.24
#  53    0.08   -0.04    0.00   -0.01   -0.01    0.00    0.00       0.03   -0.18   -0.28
#  54    0.03   -0.09    0.00   -0.01   -0.03    0.00    0.00      -0.09   -0.10   -0.28
#  55    0.12   -0.14    0.02    0.02   -0.04    0.00    0.00      -0.01    0.14   -0.28
#  56    0.08   -0.24    0.09    0.00   -0.07    0.00    0.00      -0.14   -0.01   -0.28
#  57    0.07   -0.44    0.48    0.09   -0.08    0.00    0.00       0.10    0.29   -0.28
#  58    0.04   -0.22    0.03    0.02   -0.06    0.00    0.00      -0.19    0.08   -0.28
#  59    0.93   -0.52    0.15    0.31   -0.15    0.00    0.00       0.72    0.58   -0.28
#  60    2.53   -0.03    0.00    0.51    0.20    0.00    0.00       3.21    1.50    0.59
#  61   -2.25   -0.02    0.00    0.18    0.09    0.00    0.00      -2.00    0.79    0.41

@<TRIPOS>MOLECULE
             1479        86
   61    65     0     0     0



@<TRIPOS>ATOM
      1 C1         26.7985    22.7801    58.6905 C.3        1          -0.1978
      2 C2         25.9303    24.0073    58.9751 C.3        1           0.1077
      3 C3         26.8230    25.1782    59.3913 C.3        1          -0.2058
      4 C4         25.1503    24.3839    57.7137 C.3        1          -0.1396
      5 O1         25.0140    23.7083    60.0301 O.3        1          -0.3044
      6 C5         25.0727    22.4595    60.5626 C.ar       1           0.1465
      7 C6         25.9169    22.2121    61.6497 C.ar       1          -0.1998
      8 C7         25.9965    20.9730    62.2042 C.ar       1          -0.0682
      9 C8         25.2210    19.9227    61.6800 C.ar       1          -0.0824
     10 C9         25.2810    18.6335    62.2308 C.ar       1          -0.0700
     11 C10        24.5039    17.6255    61.6898 C.ar       1          -0.0334
     12 C11        23.6590    17.8833    60.5975 C.ar       1          -0.0785
     13 C12        23.5867    19.1240    60.0506 C.ar       1          -0.1075
     14 C13        24.3644    20.1713    60.5776 C.ar       1          -0.0014
     15 C14        24.3022    21.4639    60.0324 C.ar       1          -0.1602
     16 C15        24.5635    16.2617    62.2669 C.2        1           0.1693
     17 N1         25.6290    15.5006    62.3543 N.2        1          -0.2297
     18 N2         25.2956    14.2836    62.9581 N.pl3      1          -0.3742
     19 C16        26.2292    13.1859    63.2216 C.3        1           0.1460
     20 C17        27.5207    13.7471    63.8198 C.3        1          -0.1056
     21 C18        28.4048    14.3036    62.6996 C.3        1          -0.1467
     22 C19        29.7270    14.7911    63.2978 C.3        1           0.0614
     23 O2         30.3644    13.7117    63.9839 O.3        1          -0.3816
     24 C20        29.6045    13.1822    65.0722 C.3        1           0.0616
     25 C21        28.2774    12.6301    64.5451 C.3        1          -0.1478
     26 C22        23.9670    14.2776    63.2634 C.ar       1           0.3744
     27 N3         23.1435    13.3973    63.8325 N.ar       1          -0.5716
     28 C23        21.8704    13.6801    63.9993 C.ar       1           0.3844
     29 N4         21.3389    14.8292    63.6214 N.ar       1          -0.6030
     30 C24        22.0789    15.7710    63.0448 C.ar       1           0.5185
     31 N5         21.5178    16.9710    62.6522 N.pl3      1          -0.8306
     32 C25        23.4469    15.5181    62.8500 C.ar       1          -0.3214
     33 H1         26.1625    21.9460    58.3940 H          1           0.0789
     34 H2         27.4973    23.0081    57.8856 H          1           0.0692
     35 H3         27.3541    22.5118    59.5890 H          1           0.0744
     36 H4         26.2045    26.0525    59.5941 H          1           0.0749
     37 H5         27.3787    24.9098    60.2897 H          1           0.0684
     38 H6         27.5217    25.4063    58.5864 H          1           0.0858
     39 H7         24.5319    25.2583    57.9166 H          1           0.0679
     40 H8         25.8493    24.6121    56.9090 H          1           0.0675
     41 H9         24.5144    23.5498    57.4172 H          1           0.0792
     42 H10        26.5139    23.0161    62.0544 H          1           0.1551
     43 H11        26.6530    20.7958    63.0433 H          1           0.1334
     44 H12        25.9292    18.4299    63.0702 H          1           0.1330
     45 H13        23.0593    17.0843    60.1872 H          1           0.1292
     46 H14        22.9326    19.3067    59.2108 H          1           0.1349
     47 H15        23.6510    21.6691    59.1956 H          1           0.1366
     48 H16        25.7777    12.4855    63.9244 H          1           0.1012
     49 H17        26.4554    12.6695    62.2888 H          1           0.0980
     50 H18        27.2803    14.5424    64.5254 H          1           0.0779
     51 H19        28.6028    13.5199    61.9684 H          1           0.0757
     52 H20        27.8961    15.1363    62.2136 H          1           0.0738
     53 H21        30.3772    15.1488    62.4995 H          1           0.0949
     54 H22        29.5316    15.6025    63.9989 H          1           0.0477
     55 H23        30.1665    12.3809    65.5521 H          1           0.0975
     56 H24        29.4074    13.9725    65.7965 H          1           0.0506
     57 H25        27.6775    12.2658    65.3791 H          1           0.0796
     58 H26        28.4727    11.8126    63.8513 H          1           0.0772
     59 H27        21.2328    12.9427    64.4641 H          1           0.2045
     60 H28        20.5727    17.1345    62.7963 H          1           0.4107
     61 H29        22.0690    17.6498    62.2324 H          1           0.4136
@<TRIPOS>BOND
     1    1    2 1
     2    1   33 1
     3    1   34 1
     4    1   35 1
     5    2    3 1
     6    2    4 1
     7    2    5 1
     8    3   36 1
     9    3   37 1
    10    3   38 1
    11    4   39 1
    12    4   40 1
    13    4   41 1
    14    5    6 1
    15    6   15 ar
    16    6    7 ar
    17    7    8 ar
    18    7   42 1
    19    8    9 ar
    20    8   43 1
    21    9   14 ar
    22    9   10 ar
    23   10   11 ar
    24   10   44 1
    25   11   12 ar
    26   11   16 1
    27   12   13 ar
    28   12   45 1
    29   13   14 ar
    30   13   46 1
    31   14   15 ar
    32   15   47 1
    33   16   32 1
    34   16   17 2
    35   17   18 1
    36   18   19 1
    37   18   26 1
    38   19   20 1
    39   19   48 1
    40   19   49 1
    41   20   25 1
    42   20   21 1
    43   20   50 1
    44   21   22 1
    45   21   51 1
    46   21   52 1
    47   22   23 1
    48   22   53 1
    49   22   54 1
    50   23   24 1
    51   24   25 1
    52   24   55 1
    53   24   56 1
    54   25   57 1
    55   25   58 1
    56   26   32 ar
    57   26   27 ar
    58   27   28 ar
    59   28   29 ar
    60   28   59 1
    61   29   30 ar
    62   30   31 1
    63   30   32 ar
    64   31   60 1
    65   31   61 1
##########                 Name:                 1479
##########          Protonation:                   86
##########               SMILES:   CC(C)(C)Oc1ccc2cc(ccc2c1)c3c4c(ncnc4n(n3)CC5CCOCC5)N
##########            Long Name:   y-2-naphthyl)-1-(tetrahydropyran-4-ylmethyl)pyrazolo[3,4-d]pyrimidin-4-amine
##########          FlexRecCode: 1
##########               Number:                   52
##########   Ligand Source File: /raid1/people/rgc/Examples/tdt/part3/ligand22set/build/ligand22set-0000001.db2.g
##########           GlobalRank: 20
##########                 Rank:                    5
##########               Setnum:                  245
##########             Matchnum:                49197
##########                Cloud:                    1
##########        Electrostatic:            -2.253007
##########        Van der Waals:           -26.536493
##########  Ligand Polar Desolv:             3.033671
########## Ligand Apolar Desolv:            -3.758211
##########      Internal Energy:             0.000000
##########      Receptor Energy: 0.0
########## Receptor Desolvation:             0.000000
########## Receptor Hydrophobic:             0.000000
##########         Total Energy: -29.51
##########        Ligand Charge:             0.000000
##########            Arbitrary:    +999.9990
##########     heavy atom count:   32
##########           pose count:    6
##########        Ligand Energy:             0.000000
# num electro vdwattr vdwrepu polsolv apolsol rdesolv rhydroe totalscore fullpol fullapo
#   1    0.45   -0.43    0.02   -0.13   -0.04    0.00    0.00      -0.13   -0.48   -0.17
#   2   -0.30   -0.57    0.06    0.03   -0.02    0.00    0.00      -0.79    0.11   -0.07
#   3   -0.05   -1.32    0.62   -0.22   -0.06    0.00    0.00      -1.04   -0.54   -0.16
#   4    0.59   -1.02    0.54   -0.08   -0.07    0.00    0.00      -0.05   -0.23   -0.18
#   5    1.45   -0.62    0.03    0.20    0.25    0.00    0.00       1.31    0.68    0.86
#   6   -0.97   -0.89    0.11   -0.05   -0.08    0.00    0.00      -1.88   -0.18   -0.28
#   7   -0.21   -1.08    0.19   -0.07   -0.07    0.00    0.00      -1.25   -0.27   -0.26
#   8    0.08   -1.74    0.67   -0.04   -0.12    0.00    0.00      -1.15   -0.13   -0.46
#   9    0.74   -1.27    0.24    0.00   -0.11    0.00    0.00      -0.41   -0.01   -0.40
#  10    0.57   -1.66    0.56   -0.01   -0.10    0.00    0.00      -0.63   -0.02   -0.33
#  11    0.33   -0.88    0.06    0.03   -0.12    0.00    0.00      -0.58    0.09   -0.37
#  12    1.31   -1.03    0.09    0.05   -0.17    0.00    0.00       0.25    0.14   -0.46
#  13    2.55   -1.68    0.64    0.04   -0.17    0.00    0.00       1.38    0.10   -0.45
#  14    0.02   -1.16    0.19    0.01   -0.13    0.00    0.00      -1.08    0.02   -0.40
#  15    2.54   -1.32    0.25    0.11   -0.14    0.00    0.00       1.44    0.36   -0.46
#  16   -1.05   -1.05    0.12   -0.20   -0.24    0.00    0.00      -2.43   -0.63   -0.75
#  17    1.17   -1.19    0.22    0.37    0.33    0.00    0.00       0.90    1.24    1.09
#  18    1.06   -1.46    0.24    0.59    0.38    0.00    0.00       0.81    1.52    0.98
#  19   -0.37   -1.22    0.36   -0.08   -0.17    0.00    0.00      -1.48   -0.19   -0.43
#  20    0.16   -0.65    0.09    0.03   -0.05    0.00    0.00      -0.42    0.10   -0.15
#  21    0.20   -0.60    0.05    0.09   -0.06    0.00    0.00      -0.32    0.31   -0.22
#  22    0.01   -0.34    0.02   -0.03   -0.03    0.00    0.00      -0.36   -0.14   -0.14
#  23   -0.27   -0.35    0.02    0.21    0.21    0.00    0.00      -0.19    1.41    1.38
#  24    0.05   -0.27    0.01    0.00   -0.02    0.00    0.00      -0.24   -0.02   -0.14
#  25   -0.03   -0.68    0.20   -0.03   -0.06    0.00    0.00      -0.61   -0.12   -0.23
#  26   -0.48   -1.60    0.32   -0.71   -0.95    0.00    0.00      -3.42   -1.64   -2.20
#  27   -0.69   -2.01    0.50    1.20    1.06    0.00    0.00       0.05    2.35    2.09
#  28    1.34   -1.73    0.36   -0.40   -1.77    0.00    0.00      -2.20   -0.71   -3.16
#  29   -2.74   -1.59    0.37    0.72    0.97    0.00    0.00      -2.28    1.55    2.08
#  30    0.26   -1.48    0.36   -0.47   -0.91    0.00    0.00      -2.24   -1.12   -2.15
#  31    1.36   -1.75    0.59   -0.51    0.38    0.00    0.00       0.07   -1.13    0.83
#  32    0.83   -1.27    0.20    0.53   -0.17    0.00    0.00       0.12    1.35   -0.44
#  33   -0.37   -0.15    0.01    0.03   -0.03    0.00    0.00      -0.51    0.16   -0.17
#  34   -0.07   -0.16    0.01    0.01   -0.05    0.00    0.00      -0.25    0.08   -0.28
#  35   -0.07   -0.09    0.00    0.04   -0.02    0.00    0.00      -0.13    0.50   -0.27
#  36    0.03   -0.59    0.40    0.20   -0.10    0.00    0.00      -0.07    0.51   -0.27
#  37    0.13   -0.50    0.58    0.03   -0.10    0.00    0.00       0.15    0.09   -0.28
#  38    0.04   -0.48    0.20    0.10   -0.06    0.00    0.00      -0.21    0.23   -0.15
#  39   -0.32   -0.45    0.51    0.01   -0.07    0.00    0.00      -0.32    0.05   -0.28
#  40   -0.21   -0.50    0.51    0.01   -0.09    0.00    0.00      -0.27    0.04   -0.28
#  41   -0.40   -0.26    0.04    0.11   -0.07    0.00    0.00      -0.58    0.43   -0.28
#  42    0.42   -0.18    0.02    0.12   -0.03    0.00    0.00       0.35    0.62   -0.13
#  43    0.30   -0.60    0.63    0.25   -0.07    0.00    0.00       0.51    0.95   -0.28
#  44   -1.07   -1.28    3.48    0.07   -0.08    0.00    0.00       1.12    0.24   -0.27
#  45   -2.18   -0.29    0.05   -0.06   -0.08    0.00    0.00      -2.55   -0.19   -0.28
#  46   -4.52   -0.85    1.05    0.05   -0.11    0.00    0.00      -4.36    0.14   -0.28
#  47   -2.59   -0.54    0.28   -0.07   -0.09    0.00    0.00      -3.00   -0.23   -0.28
#  48    0.01   -0.97    1.65   -0.02   -0.11    0.00    0.00       0.57   -0.04   -0.28
#  49   -0.66   -0.64    0.79   -0.02   -0.10    0.00    0.00      -0.63   -0.05   -0.28
#  50   -0.16   -0.23    0.04   -0.03   -0.05    0.00    0.00      -0.43   -0.15   -0.28
#  51   -0.12   -0.42    0.13   -0.06   -0.08    0.00    0.00      -0.55   -0.19   -0.28
#  52   -0.15   -0.16    0.01   -0.04   -0.04    0.00    0.00      -0.38   -0.21   -0.24
#  53    0.09   -0.14    0.01   -0.03   -0.04    0.00    0.00      -0.11   -0.18   -0.28
#  54    0.00   -0.05    0.00    0.00   -0.01    0.00    0.00      -0.07   -0.10   -0.28
#  55    0.11   -0.06    0.00    0.01   -0.02    0.00    0.00       0.04    0.14   -0.28
#  56    0.05   -0.07    0.00    0.00   -0.02    0.00    0.00      -0.03   -0.01   -0.28
#  57    0.09   -0.62    1.46    0.07   -0.07    0.00    0.00       0.92    0.29   -0.28
#  58    0.01   -0.20    0.02    0.02   -0.06    0.00    0.00      -0.21    0.08   -0.28
#  59    0.87   -0.33    0.04    0.29   -0.14    0.00    0.00       0.73    0.58   -0.28
#  60    1.91   -0.07    0.01    0.54    0.21    0.00    0.00       2.60    1.50    0.59
#  61   -3.32   -0.02    0.00    0.20    0.10    0.00    0.00      -3.03    0.79    0.41

@<TRIPOS>MOLECULE
             1479        86
   61    65     0     0     0



@<TRIPOS>ATOM
      1 C1         26.8544    23.6822    59.3868 C.3        1          -0.1978
      2 C2         25.9276    24.8857    59.5696 C.3        1           0.1077
      3 C3         26.7247    26.0619    60.1372 C.3        1          -0.2058
      4 C4         25.3304    25.2796    58.2170 C.3        1          -0.1396
      5 O1         24.8748    24.5433    60.4734 O.3        1          -0.3044
      6 C5         24.8832    23.2827    60.9807 C.ar       1           0.1465
      7 C6         25.5662    23.0235    62.1732 C.ar       1          -0.1998
      8 C7         25.5917    21.7725    62.7055 C.ar       1          -0.0682
      9 C8         24.9235    20.7216    62.0509 C.ar       1          -0.0824
     10 C9         24.9313    19.4203    62.5756 C.ar       1          -0.0700
     11 C10        24.2630    18.4121    61.9050 C.ar       1          -0.0334
     12 C11        23.5797    18.6818    60.7076 C.ar       1          -0.0785
     13 C12        23.5603    19.9344    60.1838 C.ar       1          -0.1075
     14 C13        24.2303    20.9822    60.8415 C.ar       1          -0.0014
     15 C14        24.2195    22.2868    60.3221 C.ar       1          -0.1602
     16 C15        24.2682    17.0355    62.4541 C.2        1           0.1693
     17 N1         25.3261    16.2922    62.6784 N.2        1          -0.2297
     18 N2         24.9355    15.0544    63.2001 N.pl3      1          -0.3742
     19 C16        25.8449    13.9677    63.5719 C.3        1           0.1460
     20 C17        27.2887    14.3958    63.3015 C.3        1          -0.1056
     21 C18        27.6037    14.2242    61.8122 C.3        1          -0.1467
     22 C19        29.0721    14.5797    61.5649 C.3        1           0.0614
     23 O2         29.9050    13.7505    62.3778 O.3        1          -0.3816
     24 C20        29.6879    13.9034    63.7819 C.3        1           0.0616
     25 C21        28.2442    13.5206    64.1183 C.3        1          -0.1478
     26 C22        23.5772    15.0162    63.3088 C.ar       1           0.3744
     27 N3         22.6994    14.1068    63.7323 N.ar       1          -0.5716
     28 C23        21.4096    14.3618    63.7187 C.ar       1           0.3844
     29 N4         20.9135    15.5102    63.2933 N.ar       1          -0.6030
     30 C24        21.7084    16.4797    62.8515 C.ar       1           0.5185
     31 N5         21.1840    17.6787    62.4084 N.pl3      1          -0.8306
     32 C25        23.0955    16.2570    62.8520 C.ar       1          -0.3214
     33 H1         26.2865    22.8443    58.9825 H          1           0.0789
     34 H2         27.6573    23.9433    58.6974 H          1           0.0692
     35 H3         27.2798    23.4016    60.3504 H          1           0.0744
     36 H4         26.0644    26.9192    60.2674 H          1           0.0749
     37 H5         27.1501    25.7811    61.1006 H          1           0.0684
     38 H6         27.5275    26.3231    59.4477 H          1           0.0858
     39 H7         24.6701    26.1371    58.3473 H          1           0.0679
     40 H8         26.1334    25.5409    57.5277 H          1           0.0675
     41 H9         24.7625    24.4417    57.8127 H          1           0.0792
     42 H10        26.0805    23.8279    62.6781 H          1           0.1551
     43 H11        26.1234    21.5862    63.6269 H          1           0.1334
     44 H12        25.4553    19.2075    63.4956 H          1           0.1330
     45 H13        23.0634    17.8826    60.1968 H          1           0.1292
     46 H14        23.0309    20.1262    59.2622 H          1           0.1349
     47 H15        23.6921    22.5010    59.4043 H          1           0.1366
     48 H16        25.7256    13.7405    64.6312 H          1           0.1012
     49 H17        25.6122    13.0814    62.9817 H          1           0.0980
     50 H18        27.4184    15.4402    63.5849 H          1           0.0779
     51 H19        27.4251    13.1897    61.5190 H          1           0.0757
     52 H20        26.9651    14.8853    61.2263 H          1           0.0738
     53 H21        29.3132    14.4183    60.5142 H          1           0.0949
     54 H22        29.2408    15.6259    61.8202 H          1           0.0477
     55 H23        30.3726    13.2548    64.3284 H          1           0.0975
     56 H24        29.8647    14.9407    64.0663 H          1           0.0506
     57 H25        28.0639    13.6787    65.1816 H          1           0.0796
     58 H26        28.0785    12.4719    63.8717 H          1           0.0772
     59 H27        20.7277    13.6013    64.0693 H          1           0.2045
     60 H28        20.2246    17.8211    62.4173 H          1           0.4107
     61 H29        21.7752    18.3779    62.0885 H          1           0.4136
@<TRIPOS>BOND
     1    1    2 1
     2    1   33 1
     3    1   34 1
     4    1   35 1
     5    2    3 1
     6    2    4 1
     7    2    5 1
     8    3   36 1
     9    3   37 1
    10    3   38 1
    11    4   39 1
    12    4   40 1
    13    4   41 1
    14    5    6 1
    15    6   15 ar
    16    6    7 ar
    17    7    8 ar
    18    7   42 1
    19    8    9 ar
    20    8   43 1
    21    9   14 ar
    22    9   10 ar
    23   10   11 ar
    24   10   44 1
    25   11   12 ar
    26   11   16 1
    27   12   13 ar
    28   12   45 1
    29   13   14 ar
    30   13   46 1
    31   14   15 ar
    32   15   47 1
    33   16   32 1
    34   16   17 2
    35   17   18 1
    36   18   19 1
    37   18   26 1
    38   19   20 1
    39   19   48 1
    40   19   49 1
    41   20   25 1
    42   20   21 1
    43   20   50 1
    44   21   22 1
    45   21   51 1
    46   21   52 1
    47   22   23 1
    48   22   53 1
    49   22   54 1
    50   23   24 1
    51   24   25 1
    52   24   55 1
    53   24   56 1
    54   25   57 1
    55   25   58 1
    56   26   32 ar
    57   26   27 ar
    58   27   28 ar
    59   28   29 ar
    60   28   59 1
    61   29   30 ar
    62   30   31 1
    63   30   32 ar
    64   31   60 1
    65   31   61 1
##########                 Name:                 1479
##########          Protonation:                   86
##########               SMILES:   CC(C)(C)Oc1ccc2cc(ccc2c1)c3c4c(ncnc4n(n3)CC5CCOCC5)N
##########            Long Name:   y-2-naphthyl)-1-(tetrahydropyran-4-ylmethyl)pyrazolo[3,4-d]pyrimidin-4-amine
##########          FlexRecCode: 1
##########               Number:                   51
##########   Ligand Source File: /raid1/people/rgc/Examples/tdt/part3/ligand22set/build/ligand22set-0000001.db2.g
##########           GlobalRank: 21
##########                 Rank:                    1
##########               Setnum:                   38
##########             Matchnum:                19166
##########                Cloud:                    1
##########        Electrostatic:            -1.319713
##########        Van der Waals:           -21.304405
##########  Ligand Polar Desolv:             2.601960
########## Ligand Apolar Desolv:            -3.063119
##########      Internal Energy:             0.000000
##########      Receptor Energy: 0.0
########## Receptor Desolvation:             0.000000
########## Receptor Hydrophobic:             0.000000
##########         Total Energy: -23.09
##########        Ligand Charge:             0.000000
##########            Arbitrary:    +999.9990
##########     heavy atom count:   32
##########           pose count:    6
##########        Ligand Energy:             0.000000
# num electro vdwattr vdwrepu polsolv apolsol rdesolv rhydroe totalscore fullpol fullapo
#   1    2.11   -1.69    0.58   -0.26   -0.09    0.00    0.00       0.65   -0.48   -0.17
#   2   -1.87   -1.11    0.15    0.06   -0.04    0.00    0.00      -2.81    0.11   -0.07
#   3    5.65   -1.98    1.05   -0.27   -0.08    0.00    0.00       4.37   -0.54   -0.16
#   4    2.58   -1.76    0.54   -0.14   -0.11    0.00    0.00       1.10   -0.23   -0.18
#   5    3.72   -1.29    0.18    0.32    0.40    0.00    0.00       3.32    0.68    0.86
#   6   -1.30   -1.04    0.06   -0.07   -0.12    0.00    0.00      -2.47   -0.18   -0.28
#   7    0.57   -1.23    0.17   -0.11   -0.11    0.00    0.00      -0.71   -0.27   -0.26
#   8    0.18   -1.28    0.20   -0.05   -0.18    0.00    0.00      -1.13   -0.13   -0.46
#   9    0.42   -1.07    0.12    0.00   -0.13    0.00    0.00      -0.66   -0.01   -0.40
#  10    0.26   -1.07    0.12   -0.01   -0.11    0.00    0.00      -0.81   -0.02   -0.33
#  11    0.10   -0.72    0.06    0.02   -0.09    0.00    0.00      -0.63    0.09   -0.37
#  12    0.28   -0.56    0.06    0.02   -0.08    0.00    0.00      -0.29    0.14   -0.46
#  13    0.71   -0.66    0.08    0.02   -0.10    0.00    0.00       0.05    0.10   -0.45
#  14    0.01   -0.86    0.09    0.01   -0.11    0.00    0.00      -0.86    0.02   -0.40
#  15    1.79   -0.84    0.04    0.12   -0.15    0.00    0.00       0.96    0.36   -0.46
#  16   -0.16   -0.58    0.03   -0.15   -0.18    0.00    0.00      -1.05   -0.63   -0.75
#  17    0.01   -0.71    0.08    0.28    0.25    0.00    0.00      -0.10    1.24    1.09
#  18   -0.26   -0.48    0.02    0.28    0.18    0.00    0.00      -0.26    1.52    0.98
#  19    0.16   -0.30    0.02   -0.04   -0.08    0.00    0.00      -0.24   -0.19   -0.43
#  20   -0.09   -0.48    0.04    0.03   -0.04    0.00    0.00      -0.54    0.10   -0.15
#  21   -0.14   -0.91    0.28    0.12   -0.08    0.00    0.00      -0.74    0.31   -0.22
#  22    0.03   -1.01    0.19   -0.06   -0.06    0.00    0.00      -0.92   -0.14   -0.14
#  23   -0.13   -0.93    0.10    0.54    0.53    0.00    0.00       0.10    1.41    1.38
#  24    0.03   -0.41    0.03    0.00   -0.03    0.00    0.00      -0.39   -0.02   -0.14
#  25   -0.12   -0.41    0.06   -0.02   -0.05    0.00    0.00      -0.55   -0.12   -0.23
#  26    0.27   -0.67    0.10   -0.30   -0.40    0.00    0.00      -0.99   -1.64   -2.20
#  27   -0.52   -0.86    0.21    0.45    0.40    0.00    0.00      -0.32    2.35    2.09
#  28    0.38   -1.35    0.65   -0.19   -0.83    0.00    0.00      -1.34   -0.71   -3.16
#  29   -0.62   -1.74    0.57    0.48    0.64    0.00    0.00      -0.66    1.55    2.08
#  30    0.45   -1.33    0.38   -0.31   -0.60    0.00    0.00      -1.41   -1.12   -2.15
#  31   -0.70   -2.25    2.66   -0.35    0.26    0.00    0.00      -0.39   -1.13    0.83
#  32   -0.07   -0.73    0.09    0.29   -0.10    0.00    0.00      -0.51    1.35   -0.44
#  33   -0.17   -0.54    0.29    0.07   -0.07    0.00    0.00      -0.42    0.16   -0.17
#  34   -1.03   -0.99    1.06    0.04   -0.15    0.00    0.00      -1.07    0.08   -0.28
#  35   -0.67   -0.73    0.96    0.21   -0.11    0.00    0.00      -0.34    0.50   -0.27
#  36   -2.28   -0.64    0.45    0.20   -0.10    0.00    0.00      -2.38    0.51   -0.27
#  37   -1.65   -0.43    0.10    0.04   -0.11    0.00    0.00      -2.06    0.09   -0.28
#  38   -2.95   -1.87    5.76    0.12   -0.08    0.00    0.00       0.97    0.23   -0.15
#  39   -1.65   -0.70    0.40    0.02   -0.13    0.00    0.00      -2.06    0.05   -0.28
#  40   -1.33   -0.60    0.15    0.03   -0.18    0.00    0.00      -1.92    0.04   -0.28
#  41   -1.03   -1.16    3.19    0.23   -0.15    0.00    0.00       1.08    0.43   -0.28
#  42    0.30   -0.26    0.03    0.18   -0.04    0.00    0.00       0.21    0.62   -0.13
#  43   -0.06   -0.27    0.03    0.26   -0.08    0.00    0.00      -0.11    0.95   -0.28
#  44   -0.41   -0.25    0.03    0.06   -0.07    0.00    0.00      -0.64    0.24   -0.27
#  45   -0.18   -0.06    0.00   -0.01   -0.02    0.00    0.00      -0.27   -0.19   -0.28
#  46   -0.93   -0.09    0.00    0.01   -0.03    0.00    0.00      -1.02    0.14   -0.28
#  47   -2.01   -0.15    0.01   -0.03   -0.04    0.00    0.00      -2.22   -0.23   -0.28
#  48    0.10   -0.05    0.00    0.00   -0.01    0.00    0.00       0.04   -0.04   -0.28
#  49    0.14   -0.13    0.01   -0.01   -0.04    0.00    0.00      -0.03   -0.05   -0.28
#  50    0.05   -0.30    0.12   -0.03   -0.05    0.00    0.00      -0.22   -0.15   -0.28
#  51    0.10   -0.44    0.24   -0.07   -0.10    0.00    0.00      -0.26   -0.19   -0.28
#  52    0.05   -0.38    0.26   -0.06   -0.07    0.00    0.00      -0.20   -0.21   -0.24
#  53    0.03   -0.62    0.40   -0.08   -0.13    0.00    0.00      -0.41   -0.18   -0.28
#  54    0.01   -0.33    0.06   -0.03   -0.09    0.00    0.00      -0.39   -0.10   -0.28
#  55    0.04   -0.08    0.00    0.01   -0.02    0.00    0.00      -0.05    0.14   -0.28
#  56    0.01   -0.18    0.04    0.00   -0.04    0.00    0.00      -0.17   -0.01   -0.28
#  57    0.05   -0.07    0.00    0.02   -0.02    0.00    0.00      -0.01    0.29   -0.28
#  58    0.09   -0.34    0.32    0.01   -0.04    0.00    0.00       0.04    0.08   -0.28
#  59    0.23   -0.20    0.03    0.11   -0.06    0.00    0.00       0.12    0.58   -0.28
#  60    0.32   -0.07    0.01    0.47    0.19    0.00    0.00       0.93    1.50    0.59
#  61   -0.21   -0.02    0.00    0.14    0.07    0.00    0.00      -0.01    0.79    0.41

@<TRIPOS>MOLECULE
             1479        86
   61    65     0     0     0



@<TRIPOS>ATOM
      1 C1         20.3548    17.6291    60.4862 C.3        1          -0.1978
      2 C2         21.0139    19.0048    60.6041 C.3        1           0.1077
      3 C3         21.9992    19.1988    59.4498 C.3        1          -0.2058
      4 C4         19.9388    20.0920    60.5451 C.3        1          -0.1396
      5 O1         21.7129    19.0931    61.8472 O.3        1          -0.3044
      6 C5         22.7075    18.1922    62.0610 C.ar       1           0.1465
      7 C6         22.4117    16.9706    62.6740 C.ar       1          -0.1998
      8 C7         23.3857    16.0491    62.9006 C.ar       1          -0.0682
      9 C8         24.7103    16.3244    62.5146 C.ar       1          -0.0824
     10 C9         25.7369    15.3934    62.7344 C.ar       1          -0.0700
     11 C10        27.0274    15.6980    62.3414 C.ar       1          -0.0334
     12 C11        27.3152    16.9279    61.7264 C.ar       1          -0.0785
     13 C12        26.3357    17.8418    61.5049 C.ar       1          -0.1075
     14 C13        25.0124    17.5625    61.8928 C.ar       1          -0.0014
     15 C14        23.9818    18.4896    61.6689 C.ar       1          -0.1602
     16 C15        28.1160    14.7190    62.5714 C.2        1           0.1693
     17 N1         28.4986    14.2405    63.7320 N.2        1          -0.2297
     18 N2         29.5540    13.3406    63.5505 N.pl3      1          -0.3742
     19 C16        30.2372    12.6105    64.6213 C.3        1           0.1460
     20 C17        29.5300    11.2750    64.8599 C.3        1          -0.1056
     21 C18        28.2894    11.5004    65.7298 C.3        1          -0.1467
     22 C19        27.6329    10.1500    66.0285 C.3        1           0.0614
     23 O2         28.5787     9.2943    66.6727 O.3        1          -0.3816
     24 C20        29.7380     9.0098    65.8871 C.3        1           0.0616
     25 C21        30.4791    10.3143    65.5828 C.3        1          -0.1478
     26 C22        29.8482    13.2481    62.2227 C.ar       1           0.3744
     27 N3         30.7385    12.5588    61.5091 N.ar       1          -0.5716
     28 C23        30.7875    12.6788    60.2007 C.ar       1           0.3844
     29 N4         29.9754    13.4731    59.5259 N.ar       1          -0.6030
     30 C24        29.0535    14.2012    60.1482 C.ar       1           0.5185
     31 N5         28.2066    15.0295    59.4373 N.pl3      1          -0.8306
     32 C25        28.9580    14.1027    61.5463 C.ar       1          -0.3214
     33 H1         19.6528    17.4909    61.3085 H          1           0.0789
     34 H2         19.8214    17.5616    59.5380 H          1           0.0692
     35 H3         21.1206    16.8545    60.5281 H          1           0.0744
     36 H4         22.4687    20.1788    59.5337 H          1           0.0749
     37 H5         22.7648    18.4241    59.4916 H          1           0.0684
     38 H6         21.4658    19.1316    58.5015 H          1           0.0858
     39 H7         20.4084    21.0721    60.6290 H          1           0.0679
     40 H8         19.4056    20.0247    59.5968 H          1           0.0675
     41 H9         19.2368    19.9538    61.3674 H          1           0.0792
     42 H10        21.3960    16.7562    62.9719 H          1           0.1551
     43 H11        23.1434    15.1098    63.3754 H          1           0.1334
     44 H12        25.5212    14.4467    63.2072 H          1           0.1330
     45 H13        28.3287    17.1495    61.4261 H          1           0.1292
     46 H14        26.5725    18.7830    61.0313 H          1           0.1349
     47 H15        24.1963    19.4348    61.1924 H          1           0.1366
     48 H16        31.2723    12.4271    64.3330 H          1           0.1012
     49 H17        30.2145    13.2023    65.5363 H          1           0.0980
     50 H18        29.2330    10.8437    63.9040 H          1           0.0779
     51 H19        28.5821    11.9780    66.6649 H          1           0.0757
     52 H20        27.5834    12.1392    65.1989 H          1           0.0738
     53 H21        26.7740    10.3002    66.6826 H          1           0.0949
     54 H22        27.3041     9.6915    65.0959 H          1           0.0477
     55 H23        30.3956     8.3386    66.4394 H          1           0.0975
     56 H24        29.4368     8.5364    64.9527 H          1           0.0506
     57 H25        31.3393    10.1049    64.9468 H          1           0.0796
     58 H26        30.8161    10.7679    66.5149 H          1           0.0772
     59 H27        31.5219    12.1049    59.6552 H          1           0.2045
     60 H28        28.2805    15.0851    58.4716 H          1           0.4107
     61 H29        27.5384    15.5555    59.9037 H          1           0.4136
@<TRIPOS>BOND
     1    1    2 1
     2    1   33 1
     3    1   34 1
     4    1   35 1
     5    2    3 1
     6    2    4 1
     7    2    5 1
     8    3   36 1
     9    3   37 1
    10    3   38 1
    11    4   39 1
    12    4   40 1
    13    4   41 1
    14    5    6 1
    15    6   15 ar
    16    6    7 ar
    17    7    8 ar
    18    7   42 1
    19    8    9 ar
    20    8   43 1
    21    9   14 ar
    22    9   10 ar
    23   10   11 ar
    24   10   44 1
    25   11   12 ar
    26   11   16 1
    27   12   13 ar
    28   12   45 1
    29   13   14 ar
    30   13   46 1
    31   14   15 ar
    32   15   47 1
    33   16   32 1
    34   16   17 2
    35   17   18 1
    36   18   19 1
    37   18   26 1
    38   19   20 1
    39   19   48 1
    40   19   49 1
    41   20   25 1
    42   20   21 1
    43   20   50 1
    44   21   22 1
    45   21   51 1
    46   21   52 1
    47   22   23 1
    48   22   53 1
    49   22   54 1
    50   23   24 1
    51   24   25 1
    52   24   55 1
    53   24   56 1
    54   25   57 1
    55   25   58 1
    56   26   32 ar
    57   26   27 ar
    58   27   28 ar
    59   28   29 ar
    60   28   59 1
    61   29   30 ar
    62   30   31 1
    63   30   32 ar
    64   31   60 1
    65   31   61 1
##########                 Name:                 1530
##########          Protonation:                   78
##########               SMILES:   CCOc1ccc2cc(ccc2c1)c3cc(ccc3C(=O)[O-])CN4CC[NH2+]CC4
##########            Long Name:   2-(6-ethoxy-2-naphthyl)-4-(piperazin-4-ium-1-ylmethyl)benzoate
##########          FlexRecCode: 1
##########               Number:                  197
##########   Ligand Source File: /raid1/people/rgc/Examples/tdt/part3/ligand22set/build/ligand22set-0000001.db2.g
##########           GlobalRank: 20
##########                 Rank:                    1
##########               Setnum:                   87
##########             Matchnum:                 9371
##########                Cloud:                    1
##########        Electrostatic:           -35.664371
##########        Van der Waals:           -32.208389
##########  Ligand Polar Desolv:            40.549728
########## Ligand Apolar Desolv:            -5.140236
##########      Internal Energy:             0.000000
##########      Receptor Energy: 0.0
########## Receptor Desolvation:             0.000000
########## Receptor Hydrophobic:             0.000000
##########         Total Energy: -32.46
##########        Ligand Charge:             0.000000
##########            Arbitrary:    +999.9990
##########     heavy atom count:   29
##########           pose count:   10
##########        Ligand Energy:             0.000000
# num electro vdwattr vdwrepu polsolv apolsol rdesolv rhydroe totalscore fullpol fullapo
#   1   -1.04   -1.76    0.69    0.07   -0.13    0.00    0.00      -2.18    0.11   -0.21
#   2    0.42   -2.14    1.06   -0.06   -0.07    0.00    0.00      -0.79   -0.09   -0.11
#   3   -3.22   -1.77    0.39    1.55    0.57    0.00    0.00      -2.49    2.37    0.88
#   4    1.46   -2.77    1.96   -0.65   -0.19    0.00    0.00      -0.20   -1.04   -0.31
#   5   -1.48   -3.14    1.32    1.04   -0.27    0.00    0.00      -2.53    1.63   -0.43
#   6   -0.34   -2.86    0.84    0.70   -0.30    0.00    0.00      -1.96    1.08   -0.46
#   7   -1.00   -2.14    0.45    1.06   -0.25    0.00    0.00      -1.88    1.69   -0.40
#   8    0.12   -2.01    0.45    0.41   -0.17    0.00    0.00      -1.21    0.71   -0.30
#   9   -0.54   -1.78    0.33    0.46   -0.16    0.00    0.00      -1.69    0.88   -0.30
#  10   -1.08   -3.09    2.28    0.52   -0.24    0.00    0.00      -1.62    0.96   -0.45
#  11   -2.08   -4.07    3.03    0.67   -0.26    0.00    0.00      -2.72    1.14   -0.45
#  12   -0.09   -2.63    0.69    0.29   -0.24    0.00    0.00      -1.96    0.50   -0.40
#  13   -2.11   -3.08    1.29    0.97   -0.27    0.00    0.00      -3.20    1.63   -0.45
#  14   -0.08   -1.63    0.36    0.18   -0.17    0.00    0.00      -1.35    0.39   -0.37
#  15   -0.26   -1.71    0.40    0.09   -0.16    0.00    0.00      -1.63    0.20   -0.35
#  16    0.24   -1.38    0.17   -0.02   -0.14    0.00    0.00      -1.13   -0.06   -0.34
#  17   -0.65   -1.06    0.20    0.38   -0.15    0.00    0.00      -1.27    1.00   -0.39
#  18    5.76   -1.12    0.08   -2.99    1.27    0.00    0.00       3.00   -7.58    3.21
#  19   -0.26   -0.73    0.07   -0.03   -0.15    0.00    0.00      -1.10   -0.09   -0.39
#  20    0.07   -1.30    0.30    0.31   -0.22    0.00    0.00      -0.84    0.66   -0.48
#  21   14.75   -2.45    1.93   -5.43    0.37    0.00    0.00       9.16  -13.14    0.89
#  22  -14.20   -0.08    0.01    4.53    0.18    0.00    0.00      -9.55   14.12    0.57
#  23  -14.82   -0.14    0.03    6.79    0.26    0.00    0.00      -7.89   15.14    0.57
#  24    0.04   -1.37    0.74    0.23   -0.18    0.00    0.00      -0.55    0.62   -0.48
#  25   -0.30   -0.95    0.20    0.08   -0.14    0.00    0.00      -1.11    0.23   -0.42
#  26    0.21   -1.45    0.25    0.17   -0.18    0.00    0.00      -1.01    0.42   -0.45
#  27    0.03   -1.86    0.50    0.82   -0.22    0.00    0.00      -0.72    1.72   -0.46
#  28   -0.30   -1.79    0.56    2.25   -0.22    0.00    0.00       0.50    4.12   -0.41
#  29    1.86   -2.23    0.40   -8.70   -0.11    0.00    0.00      -8.77  -13.92   -0.17
#  30   -2.45   -3.56    3.09   17.47   -0.27    0.00    0.00      14.29   26.91   -0.41
#  31   -1.90   -2.85    0.85   14.58   -0.20    0.00    0.00      10.48   22.24   -0.30
#  32    0.42   -1.25    3.39   -0.03   -0.16    0.00    0.00       2.38   -0.05   -0.28
#  33    0.43   -0.52    0.27   -0.05   -0.15    0.00    0.00      -0.02   -0.10   -0.28
#  34    0.52   -0.36    0.06    0.08   -0.13    0.00    0.00       0.17    0.17   -0.28
#  35    0.47   -1.09    1.71   -0.07   -0.15    0.00    0.00       0.87   -0.13   -0.27
#  36    0.40   -1.52    4.05   -0.11   -0.15    0.00    0.00       2.67   -0.20   -0.27
#  37    0.37   -0.72    0.21   -0.51   -0.13    0.00    0.00      -0.78   -0.89   -0.22
#  38    0.20   -0.68    0.16   -0.93   -0.17    0.00    0.00      -1.42   -1.53   -0.28
#  39    0.90   -0.59    0.37   -0.59   -0.12    0.00    0.00      -0.03   -1.35   -0.27
#  40    0.67   -0.63    0.36   -0.44   -0.13    0.00    0.00      -0.16   -0.96   -0.28
#  41    0.87   -1.54    2.87   -0.54   -0.18    0.00    0.00       1.48   -0.85   -0.28
#  42    0.78   -1.14    1.94   -0.61   -0.16    0.00    0.00       0.81   -1.09   -0.28
#  43    0.37   -0.48    0.23    0.15   -0.10    0.00    0.00       0.17    0.42   -0.28
#  44   -0.40   -0.78    0.42    0.43   -0.11    0.00    0.00      -0.45    1.02   -0.27
#  45   -0.39   -0.27    0.07    0.17   -0.05    0.00    0.00      -0.46    0.89   -0.28
#  46   -0.91   -0.21    0.02    0.38   -0.06    0.00    0.00      -0.79    1.64   -0.28
#  47   -1.39   -0.30    0.09    0.07   -0.06    0.00    0.00      -1.58    0.25   -0.21
#  48   -4.07   -0.76    0.43    1.92   -0.13    0.00    0.00      -2.62    4.02   -0.28
#  49   -2.94   -0.31    0.04    0.84   -0.10    0.00    0.00      -2.48    2.27   -0.28
#  50   -2.59   -0.32    0.11    1.38   -0.07    0.00    0.00      -1.50    5.59   -0.28
#  51   -3.60   -1.01    2.35    1.06   -0.10    0.00    0.00      -1.31    2.85   -0.28
#  52   -1.13   -0.67    0.38    0.55   -0.09    0.00    0.00      -0.96    1.70   -0.28
#  53   -0.66   -0.14    0.01    0.27   -0.04    0.00    0.00      -0.56    1.88   -0.28
#  54   -0.37   -0.23    0.02   -0.01   -0.06    0.00    0.00      -0.65   -0.05   -0.28
#  55   -0.34   -0.51    0.22   -0.56   -0.11    0.00    0.00      -1.32   -1.35   -0.26

@<TRIPOS>MOLECULE
             1530        78
   55    58     0     0     0



@<TRIPOS>ATOM
      1 C1         11.3546    14.1742    65.6991 C.3        1          -0.1520
      2 C2         12.7805    14.4022    66.2046 C.3        1           0.0543
      3 O1         13.3962    15.4412    65.4408 O.3        1          -0.3198
      4 C3         14.7440    15.3747    65.2828 C.ar       1           0.1257
      5 C4         15.5265    14.7777    66.2763 C.ar       1          -0.2043
      6 C5         16.8774    14.6964    66.1463 C.ar       1          -0.0506
      7 C6         17.5008    15.2187    64.9981 C.ar       1          -0.0826
      8 C7         18.8924    15.1494    64.8350 C.ar       1           0.0113
      9 C8         19.4710    15.6734    63.6924 C.ar       1          -0.0484
     10 C9         18.6763    16.2717    62.6994 C.ar       1          -0.0795
     11 C10        17.3282    16.3482    62.8391 C.ar       1          -0.1405
     12 C11        16.7091    15.8247    63.9893 C.ar       1          -0.0058
     13 C12        15.3162    15.8870    64.1528 C.ar       1          -0.1596
     14 C13        20.9393    15.6036    63.5146 C.ar       1          -0.0158
     15 C14        21.6852    16.7717    63.3799 C.ar       1          -0.1223
     16 C15        23.0536    16.7023    63.2143 C.ar       1          -0.1123
     17 C16        23.8549    17.9702    63.0694 C.3        1           0.1072
     18 N1         23.1752    18.8745    62.1322 N.3        1          -0.5333
     19 C17        22.9557    18.2204    60.8344 C.3        1           0.0174
     20 C18        22.1943    19.1721    59.9093 C.3        1          -0.0029
     21 N2         22.9705    20.4062    59.7298 N.4        1          -0.5075
     22 H1         23.8701    20.1826    59.3315 H          1           0.4242
     23 H2         22.4739    21.0286    59.1100 H          1           0.4308
     24 C19        23.1604    21.0607    61.0310 C.3        1          -0.0016
     25 C20        23.9298    20.1247    61.9656 C.3        1           0.0229
     26 C21        23.6959    15.4748    63.1808 C.ar       1          -0.1102
     27 C22        22.9765    14.3063    63.3125 C.ar       1          -0.0851
     28 C23        21.5914    14.3557    63.4868 C.ar       1          -0.1078
     29 C24        20.8178    13.1116    63.6345 C.2        1           0.5099
     30 O2         20.6261    12.6391    64.7465 O.co2      1          -0.6813
     31 O3         20.3668    12.5506    62.6454 O.co2      1          -0.6590
     32 H3         10.8849    13.3817    66.2818 H          1           0.0646
     33 H4         10.7794    15.0938    65.8068 H          1           0.0662
     34 H5         11.3834    13.8845    64.6487 H          1           0.0767
     35 H6         12.7517    14.6918    67.2551 H          1           0.0593
     36 H7         13.3555    13.4825    66.0969 H          1           0.0614
     37 H8         15.0511    14.3760    67.1590 H          1           0.1246
     38 H9         17.4698    14.2330    66.9214 H          1           0.1271
     39 H10        19.5073    14.6910    65.5953 H          1           0.1161
     40 H11        19.1443    16.6760    61.8140 H          1           0.1126
     41 H12        16.7309    16.8110    62.0675 H          1           0.1201
     42 H13        14.7003    16.3414    63.3908 H          1           0.1281
     43 H14        21.1925    17.7325    63.4044 H          1           0.1113
     44 H15        23.9462    18.4556    64.0410 H          1           0.0920
     45 H16        24.8477    17.7311    62.6880 H          1           0.0507
     46 H17        23.9172    17.9694    60.3865 H          1           0.0593
     47 H18        22.3731    17.3108    60.9796 H          1           0.1326
     48 H19        22.0430    18.6942    58.9413 H          1           0.1373
     49 H20        21.2272    19.4122    60.3511 H          1           0.1401
     50 H21        23.7253    21.9829    60.8948 H          1           0.1350
     51 H22        22.1883    21.2911    61.4670 H          1           0.1389
     52 H23        24.0579    20.6043    62.9360 H          1           0.1217
     53 H24        24.9073    19.9050    61.5363 H          1           0.0579
     54 H25        24.7673    15.4335    63.0504 H          1           0.1148
     55 H26        23.4840    13.3532    63.2851 H          1           0.1303
@<TRIPOS>BOND
     1    1    2 1
     2    1   32 1
     3    1   33 1
     4    1   34 1
     5    2    3 1
     6    2   35 1
     7    2   36 1
     8    3    4 1
     9    4   13 ar
    10    4    5 ar
    11    5    6 ar
    12    5   37 1
    13    6    7 ar
    14    6   38 1
    15    7   12 ar
    16    7    8 ar
    17    8    9 ar
    18    8   39 1
    19    9   10 ar
    20    9   14 1
    21   10   11 ar
    22   10   40 1
    23   11   12 ar
    24   11   41 1
    25   12   13 ar
    26   13   42 1
    27   14   28 ar
    28   14   15 ar
    29   15   16 ar
    30   15   43 1
    31   16   17 1
    32   16   26 ar
    33   17   18 1
    34   17   44 1
    35   17   45 1
    36   18   25 1
    37   18   19 1
    38   19   20 1
    39   19   46 1
    40   19   47 1
    41   20   21 1
    42   20   48 1
    43   20   49 1
    44   21   22 1
    45   21   23 1
    46   21   24 1
    47   24   25 1
    48   24   50 1
    49   24   51 1
    50   25   52 1
    51   25   53 1
    52   26   27 ar
    53   26   54 1
    54   27   28 ar
    55   27   55 1
    56   28   29 1
    57   29   30 1
    58   29   31 2
##########                 Name:                 1530
##########          Protonation:                   78
##########               SMILES:   CCOc1ccc2cc(ccc2c1)c3cc(ccc3C(=O)[O-])CN4CC[NH2+]CC4
##########            Long Name:   2-(6-ethoxy-2-naphthyl)-4-(piperazin-4-ium-1-ylmethyl)benzoate
##########          FlexRecCode: 1
##########               Number:                  197
##########   Ligand Source File: /raid1/people/rgc/Examples/tdt/part3/ligand22set/build/ligand22set-0000001.db2.g
##########           GlobalRank: 20
##########                 Rank:                    2
##########               Setnum:                  275
##########             Matchnum:                 1577
##########                Cloud:                    1
##########        Electrostatic:           -36.185429
##########        Van der Waals:           -31.597942
##########  Ligand Polar Desolv:            41.401077
########## Ligand Apolar Desolv:            -5.111696
##########      Internal Energy:             0.000000
##########      Receptor Energy: 0.0
########## Receptor Desolvation:             0.000000
########## Receptor Hydrophobic:             0.000000
##########         Total Energy: -31.49
##########        Ligand Charge:             0.000000
##########            Arbitrary:    +999.9990
##########     heavy atom count:   29
##########           pose count:   10
##########        Ligand Energy:             0.000000
# num electro vdwattr vdwrepu polsolv apolsol rdesolv rhydroe totalscore fullpol fullapo
#   1   -1.11   -1.45    0.56    0.07   -0.14    0.00    0.00      -2.06    0.11   -0.21
#   2    0.49   -1.60    0.51   -0.05   -0.07    0.00    0.00      -0.72   -0.09   -0.11
#   3   -3.20   -1.76    0.36    1.55    0.57    0.00    0.00      -2.48    2.37    0.88
#   4    1.46   -2.69    1.72   -0.65   -0.20    0.00    0.00      -0.37   -1.04   -0.31
#   5   -1.58   -2.98    1.02    1.04   -0.27    0.00    0.00      -2.78    1.63   -0.43
#   6   -0.37   -2.75    0.65    0.70   -0.30    0.00    0.00      -2.07    1.08   -0.46
#   7   -1.03   -2.14    0.43    1.06   -0.25    0.00    0.00      -1.93    1.69   -0.40
#   8    0.12   -2.04    0.48    0.41   -0.17    0.00    0.00      -1.21    0.71   -0.30
#   9   -0.56   -1.81    0.35    0.46   -0.16    0.00    0.00      -1.71    0.88   -0.30
#  10   -1.04   -3.11    2.06    0.52   -0.24    0.00    0.00      -1.80    0.96   -0.45
#  11   -1.98   -4.18    3.27    0.67   -0.27    0.00    0.00      -2.48    1.14   -0.45
#  12   -0.09   -2.67    0.73    0.29   -0.24    0.00    0.00      -1.96    0.50   -0.40
#  13   -2.06   -3.10    1.35    0.97   -0.27    0.00    0.00      -3.11    1.63   -0.45
#  14   -0.08   -1.64    0.36    0.18   -0.17    0.00    0.00      -1.36    0.39   -0.37
#  15   -0.27   -1.68    0.38    0.09   -0.16    0.00    0.00      -1.63    0.20   -0.35
#  16    0.25   -1.32    0.15   -0.02   -0.14    0.00    0.00      -1.08   -0.06   -0.34
#  17   -0.70   -0.91    0.12    0.38   -0.15    0.00    0.00      -1.26    1.00   -0.39
#  18    6.27   -1.06    0.07   -3.08    1.30    0.00    0.00       3.50   -7.58    3.21
#  19   -0.29   -0.78    0.09   -0.03   -0.15    0.00    0.00      -1.16   -0.09   -0.39
#  20    0.08   -1.71    0.68    0.31   -0.22    0.00    0.00      -0.86    0.66   -0.48
#  21   15.27   -2.95    3.12   -5.49    0.37    0.00    0.00      10.31  -13.14    0.89
#  22  -13.03   -0.06    0.01    4.37    0.18    0.00    0.00      -8.53   14.12    0.57
#  23  -15.24   -0.21    0.08    7.09    0.27    0.00    0.00      -8.00   15.14    0.57
#  24    0.04   -1.74    1.24    0.24   -0.19    0.00    0.00      -0.40    0.62   -0.48
#  25   -0.35   -1.30    0.62    0.09   -0.16    0.00    0.00      -1.10    0.23   -0.42
#  26    0.20   -1.44    0.25    0.17   -0.18    0.00    0.00      -1.00    0.42   -0.45
#  27    0.01   -1.84    0.48    0.82   -0.22    0.00    0.00      -0.75    1.72   -0.46
#  28   -0.32   -1.75    0.47    2.24   -0.22    0.00    0.00       0.42    4.12   -0.41
#  29    1.92   -2.19    0.39   -8.68   -0.11    0.00    0.00      -8.66  -13.92   -0.17
#  30   -2.68   -4.13    6.40   17.30   -0.26    0.00    0.00      16.62   26.91   -0.41
#  31   -1.93   -2.68    0.60   14.63   -0.20    0.00    0.00      10.42   22.24   -0.30
#  32    0.39   -0.36    0.04   -0.02   -0.12    0.00    0.00      -0.08   -0.05   -0.28
#  33    0.52   -1.02    2.95   -0.04   -0.13    0.00    0.00       2.28   -0.10   -0.28
#  34    0.49   -0.37    0.05    0.09   -0.15    0.00    0.00       0.11    0.17   -0.28
#  35    0.67   -0.68    0.37   -0.06   -0.13    0.00    0.00       0.16   -0.13   -0.27
#  36    0.49   -0.72    0.49   -0.10   -0.14    0.00    0.00       0.01   -0.20   -0.27
#  37    0.45   -0.69    0.17   -0.51   -0.13    0.00    0.00      -0.71   -0.89   -0.22
#  38    0.34   -0.65    0.12   -0.93   -0.17    0.00    0.00      -1.29   -1.53   -0.28
#  39    0.95   -0.62    0.45   -0.60   -0.12    0.00    0.00       0.06   -1.35   -0.27
#  40    0.64   -0.67    0.45   -0.45   -0.13    0.00    0.00      -0.17   -0.96   -0.28
#  41    0.80   -1.77    4.53   -0.55   -0.18    0.00    0.00       2.84   -0.85   -0.28
#  42    0.81   -1.05    1.30   -0.61   -0.16    0.00    0.00       0.29   -1.09   -0.28
#  43    0.39   -0.48    0.25    0.14   -0.10    0.00    0.00       0.21    0.42   -0.28
#  44   -0.44   -0.61    0.21    0.41   -0.11    0.00    0.00      -0.54    1.02   -0.27
#  45   -0.39   -0.22    0.04    0.16   -0.05    0.00    0.00      -0.47    0.89   -0.28
#  46   -0.98   -0.20    0.02    0.35   -0.06    0.00    0.00      -0.88    1.64   -0.28
#  47   -1.71   -0.35    0.13    0.07   -0.06    0.00    0.00      -1.92    0.25   -0.21
#  48   -4.68   -1.13    1.03    2.07   -0.14    0.00    0.00      -2.86    4.02   -0.28
#  49   -3.34   -0.42    0.10    0.91   -0.11    0.00    0.00      -2.86    2.27   -0.28
#  50   -3.39   -0.67    0.86    1.84   -0.09    0.00    0.00      -1.45    5.59   -0.28
#  51   -3.43   -0.66    0.43    1.16   -0.11    0.00    0.00      -2.62    2.85   -0.28
#  52   -1.65   -1.25    2.41    0.63   -0.10    0.00    0.00       0.04    1.70   -0.28
#  53   -0.69   -0.19    0.02    0.35   -0.05    0.00    0.00      -0.56    1.88   -0.28
#  54   -0.37   -0.23    0.02   -0.01   -0.06    0.00    0.00      -0.65   -0.05   -0.28
#  55   -0.25   -0.47    0.14   -0.55   -0.11    0.00    0.00      -1.24   -1.35   -0.26

@<TRIPOS>MOLECULE
             1530        78
   55    58     0     0     0



@<TRIPOS>ATOM
      1 C1         11.6354    14.0959    64.4124 C.3        1          -0.1520
      2 C2         12.5436    15.3208    64.2868 C.3        1           0.0543
      3 O1         13.3389    15.4471    65.4674 O.3        1          -0.3198
      4 C3         14.6876    15.4007    65.3104 C.ar       1           0.1257
      5 C4         15.4850    14.8909    66.3400 C.ar       1          -0.2043
      6 C5         16.8372    14.8317    66.2119 C.ar       1          -0.0506
      7 C6         17.4469    15.2885    65.0289 C.ar       1          -0.0826
      8 C7         18.8395    15.2399    64.8668 C.ar       1           0.0113
      9 C8         19.4044    15.6977    63.6895 C.ar       1          -0.0484
     10 C9         18.5948    16.2084    62.6603 C.ar       1          -0.0795
     11 C10        17.2455    16.2636    62.7984 C.ar       1          -0.1405
     12 C11        16.6402    15.8060    63.9834 C.ar       1          -0.0058
     13 C12        15.2464    15.8475    64.1464 C.ar       1          -0.1596
     14 C13        20.8737    15.6495    63.5126 C.ar       1          -0.0158
     15 C14        21.5924    16.8223    63.2962 C.ar       1          -0.1223
     16 C15        22.9618    16.7729    63.1318 C.ar       1          -0.1123
     17 C16        23.7336    18.0459    62.8983 C.3        1           0.1072
     18 N1         23.0320    18.8684    61.9036 N.3        1          -0.5333
     19 C17        23.2351    18.3415    60.5467 C.3        1           0.0174
     20 C18        22.4418    19.1887    59.5496 C.3        1          -0.0029
     21 N2         22.8938    20.5843    59.6241 N.4        1          -0.5075
     22 H1         23.8787    20.6304    59.4104 H          1           0.4242
     23 H2         22.3789    21.1404    58.9579 H          1           0.4308
     24 C19        22.6618    21.1042    60.9781 C.3        1          -0.0016
     25 C20        23.4571    20.2729    61.9871 C.3        1           0.0229
     26 C21        23.6321    15.5609    63.1803 C.ar       1          -0.1102
     27 C22        22.9398    14.3881    63.3936 C.ar       1          -0.0851
     28 C23        21.5542    14.4177    63.5681 C.ar       1          -0.1078
     29 C24        20.8095    13.1693    63.8027 C.2        1           0.5099
     30 O2         20.6302    12.7696    64.9449 O.co2      1          -0.6813
     31 O3         20.3702    12.5319    62.8555 O.co2      1          -0.6590
     32 H3         11.0287    13.9995    63.5120 H          1           0.0646
     33 H4         12.2463    13.2017    64.5361 H          1           0.0662
     34 H5         10.9841    14.2136    65.2784 H          1           0.0767
     35 H6         13.1949    15.2031    63.4209 H          1           0.0593
     36 H7         11.9326    16.2149    64.1632 H          1           0.0614
     37 H8         15.0202    14.5397    67.2495 H          1           0.1246
     38 H9         17.4411    14.4360    67.0152 H          1           0.1271
     39 H10        19.4658    14.8487    65.6549 H          1           0.1161
     40 H11        19.0522    16.5619    61.7480 H          1           0.1126
     41 H12        16.6366    16.6589    61.9988 H          1           0.1201
     42 H13        14.6192    16.2346    63.3569 H          1           0.1281
     43 H14        21.0778    17.7710    63.2565 H          1           0.1113
     44 H15        23.8150    18.5985    63.8343 H          1           0.0920
     45 H16        24.7311    17.8040    62.5312 H          1           0.0507
     46 H17        24.2951    18.3818    60.2957 H          1           0.0593
     47 H18        22.8895    17.3086    60.5021 H          1           0.1326
     48 H19        22.6023    18.8082    58.5408 H          1           0.1373
     49 H20        21.3804    19.1371    59.7926 H          1           0.1401
     50 H21        22.9857    22.1437    61.0285 H          1           0.1350
     51 H22        21.5994    21.0429    61.2138 H          1           0.1389
     52 H23        23.2735    20.6492    62.9935 H          1           0.1217
     53 H24        24.5207    20.3451    61.7598 H          1           0.0579
     54 H25        24.7039    15.5352    63.0499 H          1           0.1148
     55 H26        23.4690    13.4472    63.4298 H          1           0.1303
@<TRIPOS>BOND
     1    1    2 1
     2    1   32 1
     3    1   33 1
     4    1   34 1
     5    2    3 1
     6    2   35 1
     7    2   36 1
     8    3    4 1
     9    4   13 ar
    10    4    5 ar
    11    5    6 ar
    12    5   37 1
    13    6    7 ar
    14    6   38 1
    15    7   12 ar
    16    7    8 ar
    17    8    9 ar
    18    8   39 1
    19    9   10 ar
    20    9   14 1
    21   10   11 ar
    22   10   40 1
    23   11   12 ar
    24   11   41 1
    25   12   13 ar
    26   13   42 1
    27   14   28 ar
    28   14   15 ar
    29   15   16 ar
    30   15   43 1
    31   16   17 1
    32   16   26 ar
    33   17   18 1
    34   17   44 1
    35   17   45 1
    36   18   25 1
    37   18   19 1
    38   19   20 1
    39   19   46 1
    40   19   47 1
    41   20   21 1
    42   20   48 1
    43   20   49 1
    44   21   22 1
    45   21   23 1
    46   21   24 1
    47   24   25 1
    48   24   50 1
    49   24   51 1
    50   25   52 1
    51   25   53 1
    52   26   27 ar
    53   26   54 1
    54   27   28 ar
    55   27   55 1
    56   28   29 1
    57   29   30 1
    58   29   31 2
##########                 Name:                 1530
##########          Protonation:                   78
##########               SMILES:   CCOc1ccc2cc(ccc2c1)c3cc(ccc3C(=O)[O-])CN4CC[NH2+]CC4
##########            Long Name:   2-(6-ethoxy-2-naphthyl)-4-(piperazin-4-ium-1-ylmethyl)benzoate
##########          FlexRecCode: 1
##########               Number:                  197
##########   Ligand Source File: /raid1/people/rgc/Examples/tdt/part3/ligand22set/build/ligand22set-0000001.db2.g
##########           GlobalRank: 20
##########                 Rank:                    3
##########               Setnum:                  172
##########             Matchnum:                22446
##########                Cloud:                    1
##########        Electrostatic:           -30.059803
##########        Van der Waals:           -33.918678
##########  Ligand Polar Desolv:            38.093575
########## Ligand Apolar Desolv:            -5.298895
##########      Internal Energy:             0.000000
##########      Receptor Energy: 0.0
########## Receptor Desolvation:             0.000000
########## Receptor Hydrophobic:             0.000000
##########         Total Energy: -31.18
##########        Ligand Charge:             0.000000
##########            Arbitrary:    +999.9990
##########     heavy atom count:   29
##########           pose count:   10
##########        Ligand Energy:             0.000000
# num electro vdwattr vdwrepu polsolv apolsol rdesolv rhydroe totalscore fullpol fullapo
#   1   -1.00   -1.28    0.18    0.07   -0.14    0.00    0.00      -2.16    0.11   -0.21
#   2    0.49   -1.60    0.46   -0.05   -0.07    0.00    0.00      -0.78   -0.09   -0.11
#   3   -3.19   -1.75    0.35    1.55    0.57    0.00    0.00      -2.47    2.37    0.88
#   4    1.44   -2.68    1.65   -0.66   -0.20    0.00    0.00      -0.44   -1.04   -0.31
#   5   -1.40   -3.19    1.30    1.03   -0.27    0.00    0.00      -2.52    1.63   -0.43
#   6   -0.32   -2.93    0.85    0.70   -0.30    0.00    0.00      -2.00    1.08   -0.46
#   7   -1.01   -2.14    0.40    1.07   -0.25    0.00    0.00      -1.94    1.69   -0.40
#   8    0.12   -2.16    0.60    0.41   -0.17    0.00    0.00      -1.20    0.71   -0.30
#   9   -0.59   -1.95    0.49    0.46   -0.16    0.00    0.00      -1.75    0.88   -0.30
#  10   -1.34   -3.48    4.45    0.52   -0.24    0.00    0.00      -0.10    0.96   -0.45
#  11   -2.40   -3.95    2.88    0.67   -0.26    0.00    0.00      -3.07    1.14   -0.45
#  12   -0.09   -2.59    0.69    0.30   -0.24    0.00    0.00      -1.94    0.50   -0.40
#  13   -2.20   -2.98    1.14    0.97   -0.27    0.00    0.00      -3.32    1.63   -0.45
#  14   -0.09   -1.84    0.55    0.18   -0.17    0.00    0.00      -1.37    0.39   -0.37
#  15   -0.38   -2.22    0.99    0.09   -0.16    0.00    0.00      -1.68    0.20   -0.35
#  16    0.15   -1.72    0.32   -0.03   -0.15    0.00    0.00      -1.42   -0.06   -0.34
#  17   -0.56   -1.57    0.53    0.41   -0.16    0.00    0.00      -1.36    1.00   -0.39
#  18    5.31   -0.99    0.07   -2.62    1.11    0.00    0.00       2.89   -7.58    3.21
#  19   -0.16   -0.61    0.07   -0.02   -0.10    0.00    0.00      -0.84   -0.09   -0.39
#  20    0.04   -0.63    0.13    0.17   -0.13    0.00    0.00      -0.40    0.66   -0.48
#  21   12.14   -1.63    1.19   -4.46    0.30    0.00    0.00       7.53  -13.14    0.89
#  22   -8.40   -0.02    0.00    3.56    0.14    0.00    0.00      -4.71   14.12    0.57
#  23  -14.62   -0.13    0.05    5.02    0.19    0.00    0.00      -9.49   15.14    0.57
#  24    0.04   -1.10    0.24    0.26   -0.20    0.00    0.00      -0.76    0.62   -0.48
#  25   -0.33   -0.79    0.07    0.10   -0.18    0.00    0.00      -1.13    0.23   -0.42
#  26    0.13   -1.70    0.43    0.17   -0.18    0.00    0.00      -1.15    0.42   -0.45
#  27   -0.02   -1.85    0.48    0.82   -0.22    0.00    0.00      -0.79    1.72   -0.46
#  28   -0.34   -1.73    0.39    2.20   -0.22    0.00    0.00       0.30    4.12   -0.41
#  29    1.93   -2.10    0.36   -8.61   -0.11    0.00    0.00      -8.53  -13.92   -0.17
#  30   -2.59   -3.77    4.46   17.36   -0.26    0.00    0.00      15.19   26.91   -0.41
#  31   -1.96   -2.56    0.72   14.39   -0.19    0.00    0.00      10.40   22.24   -0.30
#  32    0.27   -0.44    0.08   -0.02   -0.13    0.00    0.00      -0.25   -0.05   -0.28
#  33    0.45   -0.39    0.08   -0.05   -0.13    0.00    0.00      -0.04   -0.10   -0.28
#  34    0.48   -0.46    0.15    0.09   -0.15    0.00    0.00       0.11    0.17   -0.28
#  35    0.67   -0.71    0.69   -0.06   -0.13    0.00    0.00       0.46   -0.13   -0.27
#  36    0.48   -0.88    0.89   -0.11   -0.14    0.00    0.00       0.25   -0.20   -0.27
#  37    0.31   -0.77    0.26   -0.52   -0.13    0.00    0.00      -0.84   -0.89   -0.22
#  38    0.11   -0.72    0.20   -0.95   -0.17    0.00    0.00      -1.54   -1.53   -0.28
#  39    0.91   -0.66    0.51   -0.62   -0.12    0.00    0.00       0.01   -1.35   -0.27
#  40    1.01   -0.68    0.69   -0.42   -0.12    0.00    0.00       0.48   -0.96   -0.28
#  41    1.10   -1.28    1.28   -0.53   -0.18    0.00    0.00       0.38   -0.85   -0.28
#  42    0.87   -1.09    1.75   -0.61   -0.16    0.00    0.00       0.75   -1.09   -0.28
#  43    0.48   -0.71    0.69    0.17   -0.11    0.00    0.00       0.52    0.42   -0.28
#  44   -0.35   -0.72    0.25    0.47   -0.13    0.00    0.00      -0.47    1.02   -0.27
#  45   -0.41   -1.53    4.93    0.33   -0.10    0.00    0.00       3.22    0.89   -0.28
#  46   -0.43   -0.29    0.05    0.39   -0.07    0.00    0.00      -0.34    1.64   -0.28
#  47   -0.97   -0.22    0.07    0.04   -0.03    0.00    0.00      -1.12    0.25   -0.21
#  48   -1.44   -0.12    0.01    0.43   -0.03    0.00    0.00      -1.15    4.02   -0.28
#  49   -2.35   -0.25    0.07    0.42   -0.05    0.00    0.00      -2.16    2.27   -0.28
#  50   -3.80   -0.54    0.31    2.13   -0.11    0.00    0.00      -2.00    5.59   -0.28
#  51   -3.50   -0.40    0.10    1.01   -0.10    0.00    0.00      -2.89    2.85   -0.28
#  52   -1.30   -0.22    0.01    0.40   -0.07    0.00    0.00      -1.17    1.70   -0.28
#  53   -0.93   -0.56    0.38    0.62   -0.09    0.00    0.00      -0.58    1.88   -0.28
#  54   -0.31   -0.30    0.06   -0.01   -0.07    0.00    0.00      -0.64   -0.05   -0.28
#  55   -0.21   -0.44    0.11   -0.54   -0.10    0.00    0.00      -1.19   -1.35   -0.26

@<TRIPOS>MOLECULE
             1530        78
   55    58     0     0     0



@<TRIPOS>ATOM
      1 C1         11.2238    14.7713    64.5560 C.3        1          -0.1520
      2 C2         12.5738    15.4492    64.3129 C.3        1           0.0543
      3 O1         13.3419    15.4267    65.5177 O.3        1          -0.3198
      4 C3         14.6934    15.3831    65.3868 C.ar       1           0.1257
      5 C4         15.4614    14.7467    66.3672 C.ar       1          -0.2043
      6 C5         16.8157    14.6870    66.2636 C.ar       1          -0.0506
      7 C6         17.4575    15.2721    65.1565 C.ar       1          -0.0826
      8 C7         18.8531    15.2264    65.0214 C.ar       1           0.0113
      9 C8         19.4500    15.8123    63.9191 C.ar       1          -0.0484
     10 C9         18.6698    16.4499    62.9390 C.ar       1          -0.0795
     11 C10        17.3182    16.5044    63.0521 C.ar       1          -0.1405
     12 C11        16.6807    15.9181    64.1612 C.ar       1          -0.0058
     13 C12        15.2838    15.9567    64.2963 C.ar       1          -0.1596
     14 C13        20.9226    15.7678    63.7710 C.ar       1          -0.0158
     15 C14        21.6569    16.9494    63.7102 C.ar       1          -0.1223
     16 C15        23.0293    16.9034    63.5721 C.ar       1          -0.1123
     17 C16        23.8180    18.1858    63.5073 C.3        1           0.1072
     18 N1         23.9361    18.6178    62.1081 N.3        1          -0.5333
     19 C17        25.1069    19.4865    61.9221 C.3        1           0.0174
     20 C18        25.2280    19.8650    60.4444 C.3        1          -0.0029
     21 N2         24.0075    20.5608    60.0154 N.4        1          -0.5075
     22 H1         23.8789    21.3900    60.5755 H          1           0.4242
     23 H2         24.0926    20.8209    59.0443 H          1           0.4308
     24 C19        22.8503    19.6719    60.1840 C.3        1          -0.0016
     25 C20        22.7095    19.2919    61.6597 C.3        1           0.0229
     26 C21        23.6872    15.6863    63.4929 C.ar       1          -0.1102
     27 C22        22.9794    14.5048    63.5512 C.ar       1          -0.0851
     28 C23        21.5903    14.5302    63.6966 C.ar       1          -0.1078
     29 C24        20.8289    13.2717    63.7660 C.2        1           0.5099
     30 O2         20.6189    12.7430    64.8489 O.co2      1          -0.6813
     31 O3         20.4065    12.7550    62.7408 O.co2      1          -0.6590
     32 H3         10.6380    14.7885    63.6370 H          1           0.0646
     33 H4         11.3861    13.7384    64.8641 H          1           0.0662
     34 H5         10.6856    15.3041    65.3400 H          1           0.0767
     35 H6         13.1119    14.9164    63.5289 H          1           0.0593
     36 H7         12.4114    16.4820    64.0048 H          1           0.0614
     37 H8         14.9719    14.2968    67.2184 H          1           0.1246
     38 H9         17.3967    14.1927    67.0282 H          1           0.1271
     39 H10        19.4569    14.7380    65.7719 H          1           0.1161
     40 H11        19.1520    16.9025    62.0851 H          1           0.1126
     41 H12        16.7321    16.9979    62.2909 H          1           0.1201
     42 H13        14.6792    16.4411    63.5439 H          1           0.1281
     43 H14        21.1520    17.9022    63.7707 H          1           0.1113
     44 H15        23.3064    18.9568    64.0835 H          1           0.0920
     45 H16        24.8127    18.0222    63.9221 H          1           0.0507
     46 H17        24.9882    20.3900    62.5205 H          1           0.0593
     47 H18        26.0063    18.9571    62.2367 H          1           0.1326
     48 H19        26.0876    20.5210    60.3066 H          1           0.1373
     49 H20        25.3604    18.9624    59.8479 H          1           0.1401
     50 H21        21.9472    20.1847    59.8533 H          1           0.1350
     51 H22        22.9949    18.7704    59.5888 H          1           0.1389
     52 H23        21.8597    18.6205    61.7829 H          1           0.1217
     53 H24        22.5514    20.1921    62.2535 H          1           0.0579
     54 H25        24.7615    15.6634    63.3846 H          1           0.1148
     55 H26        23.4990    13.5600    63.4885 H          1           0.1303
@<TRIPOS>BOND
     1    1    2 1
     2    1   32 1
     3    1   33 1
     4    1   34 1
     5    2    3 1
     6    2   35 1
     7    2   36 1
     8    3    4 1
     9    4   13 ar
    10    4    5 ar
    11    5    6 ar
    12    5   37 1
    13    6    7 ar
    14    6   38 1
    15    7   12 ar
    16    7    8 ar
    17    8    9 ar
    18    8   39 1
    19    9   10 ar
    20    9   14 1
    21   10   11 ar
    22   10   40 1
    23   11   12 ar
    24   11   41 1
    25   12   13 ar
    26   13   42 1
    27   14   28 ar
    28   14   15 ar
    29   15   16 ar
    30   15   43 1
    31   16   17 1
    32   16   26 ar
    33   17   18 1
    34   17   44 1
    35   17   45 1
    36   18   25 1
    37   18   19 1
    38   19   20 1
    39   19   46 1
    40   19   47 1
    41   20   21 1
    42   20   48 1
    43   20   49 1
    44   21   22 1
    45   21   23 1
    46   21   24 1
    47   24   25 1
    48   24   50 1
    49   24   51 1
    50   25   52 1
    51   25   53 1
    52   26   27 ar
    53   26   54 1
    54   27   28 ar
    55   27   55 1
    56   28   29 1
    57   29   30 1
    58   29   31 2
##########                 Name:                 1530
##########          Protonation:                   78
##########               SMILES:   CCOc1ccc2cc(ccc2c1)c3cc(ccc3C(=O)[O-])CN4CC[NH2+]CC4
##########            Long Name:   2-(6-ethoxy-2-naphthyl)-4-(piperazin-4-ium-1-ylmethyl)benzoate
##########          FlexRecCode: 1
##########               Number:                  197
##########   Ligand Source File: /raid1/people/rgc/Examples/tdt/part3/ligand22set/build/ligand22set-0000001.db2.g
##########           GlobalRank: 20
##########                 Rank:                    4
##########               Setnum:                  169
##########             Matchnum:                 9371
##########                Cloud:                    1
##########        Electrostatic:           -28.956051
##########        Van der Waals:           -33.259754
##########  Ligand Polar Desolv:            37.546436
########## Ligand Apolar Desolv:            -5.285331
##########      Internal Energy:             0.000000
##########      Receptor Energy: 0.0
########## Receptor Desolvation:             0.000000
########## Receptor Hydrophobic:             0.000000
##########         Total Energy: -29.95
##########        Ligand Charge:             0.000000
##########            Arbitrary:    +999.9990
##########     heavy atom count:   29
##########           pose count:   10
##########        Ligand Energy:             0.000000
# num electro vdwattr vdwrepu polsolv apolsol rdesolv rhydroe totalscore fullpol fullapo
#   1   -1.01   -1.28    0.18    0.07   -0.14    0.00    0.00      -2.17    0.11   -0.21
#   2    0.49   -1.63    0.50   -0.05   -0.07    0.00    0.00      -0.76   -0.09   -0.11
#   3   -3.22   -1.77    0.39    1.55    0.57    0.00    0.00      -2.49    2.37    0.88
#   4    1.46   -2.77    1.96   -0.65   -0.19    0.00    0.00      -0.20   -1.04   -0.31
#   5   -1.48   -3.14    1.32    1.04   -0.27    0.00    0.00      -2.53    1.63   -0.43
#   6   -0.34   -2.86    0.84    0.70   -0.30    0.00    0.00      -1.96    1.08   -0.46
#   7   -1.00   -2.14    0.45    1.06   -0.25    0.00    0.00      -1.88    1.69   -0.40
#   8    0.12   -2.01    0.45    0.41   -0.17    0.00    0.00      -1.21    0.71   -0.30
#   9   -0.54   -1.78    0.33    0.46   -0.16    0.00    0.00      -1.69    0.88   -0.30
#  10   -1.08   -3.09    2.28    0.52   -0.24    0.00    0.00      -1.62    0.96   -0.45
#  11   -2.08   -4.07    3.03    0.67   -0.26    0.00    0.00      -2.72    1.14   -0.45
#  12   -0.09   -2.63    0.69    0.29   -0.24    0.00    0.00      -1.96    0.50   -0.40
#  13   -2.11   -3.08    1.29    0.97   -0.27    0.00    0.00      -3.20    1.63   -0.45
#  14   -0.08   -1.63    0.36    0.18   -0.17    0.00    0.00      -1.35    0.39   -0.37
#  15   -0.26   -1.71    0.40    0.09   -0.16    0.00    0.00      -1.63    0.20   -0.35
#  16    0.24   -1.38    0.17   -0.02   -0.14    0.00    0.00      -1.13   -0.06   -0.34
#  17   -0.65   -1.06    0.20    0.38   -0.15    0.00    0.00      -1.27    1.00   -0.39
#  18    5.84   -0.84    0.04   -2.54    1.08    0.00    0.00       3.58   -7.58    3.21
#  19   -0.17   -0.53    0.04   -0.03   -0.11    0.00    0.00      -0.81   -0.09   -0.39
#  20    0.05   -1.43    0.69    0.24   -0.17    0.00    0.00      -0.62    0.66   -0.48
#  21   11.40   -2.88    6.19   -4.09    0.28    0.00    0.00      10.89  -13.14    0.89
#  22   -5.27   -0.01    0.00    2.20    0.09    0.00    0.00      -3.00   14.12    0.57
#  23  -16.15   -0.39    0.48    5.42    0.20    0.00    0.00     -10.45   15.14    0.57
#  24    0.04   -1.30    1.10    0.20   -0.15    0.00    0.00      -0.12    0.62   -0.48
#  25   -0.31   -0.61    0.04    0.07   -0.13    0.00    0.00      -0.93    0.23   -0.42
#  26    0.21   -1.45    0.25    0.17   -0.18    0.00    0.00      -1.01    0.42   -0.45
#  27    0.03   -1.86    0.50    0.82   -0.22    0.00    0.00      -0.72    1.72   -0.46
#  28   -0.30   -1.79    0.56    2.25   -0.22    0.00    0.00       0.50    4.12   -0.41
#  29    1.86   -2.23    0.40   -8.70   -0.11    0.00    0.00      -8.77  -13.92   -0.17
#  30   -2.45   -3.56    3.09   17.47   -0.27    0.00    0.00      14.29   26.91   -0.41
#  31   -1.90   -2.85    0.85   14.58   -0.20    0.00    0.00      10.48   22.24   -0.30
#  32    0.27   -0.43    0.08   -0.02   -0.13    0.00    0.00      -0.24   -0.05   -0.28
#  33    0.45   -0.40    0.08   -0.05   -0.13    0.00    0.00      -0.04   -0.10   -0.28
#  34    0.49   -0.46    0.15    0.09   -0.15    0.00    0.00       0.12    0.17   -0.28
#  35    0.68   -0.75    0.84   -0.06   -0.13    0.00    0.00       0.58   -0.13   -0.27
#  36    0.48   -0.84    0.66   -0.11   -0.14    0.00    0.00       0.05   -0.20   -0.27
#  37    0.37   -0.72    0.21   -0.51   -0.13    0.00    0.00      -0.78   -0.89   -0.22
#  38    0.20   -0.68    0.16   -0.93   -0.17    0.00    0.00      -1.42   -1.53   -0.28
#  39    0.90   -0.59    0.37   -0.59   -0.12    0.00    0.00      -0.03   -1.35   -0.27
#  40    0.67   -0.63    0.36   -0.44   -0.13    0.00    0.00      -0.16   -0.96   -0.28
#  41    0.87   -1.54    2.87   -0.54   -0.18    0.00    0.00       1.48   -0.85   -0.28
#  42    0.78   -1.14    1.94   -0.61   -0.16    0.00    0.00       0.81   -1.09   -0.28
#  43    0.37   -0.48    0.23    0.15   -0.10    0.00    0.00       0.17    0.42   -0.28
#  44   -0.48   -0.45    0.08    0.40   -0.11    0.00    0.00      -0.55    1.02   -0.27
#  45   -0.39   -0.75    1.05    0.26   -0.08    0.00    0.00       0.08    0.89   -0.28
#  46   -0.44   -0.11    0.00    0.17   -0.03    0.00    0.00      -0.40    1.64   -0.28
#  47   -0.98   -0.19    0.02    0.05   -0.04    0.00    0.00      -1.14    0.25   -0.21
#  48   -1.46   -0.46    0.16    1.35   -0.09    0.00    0.00      -0.50    4.02   -0.28
#  49   -3.04   -0.77    0.71    0.91   -0.11    0.00    0.00      -2.30    2.27   -0.28
#  50   -2.70   -0.31    0.14    1.25   -0.06    0.00    0.00      -1.68    5.59   -0.28
#  51   -4.15   -0.57    0.46    0.95   -0.09    0.00    0.00      -3.40    2.85   -0.28
#  52   -1.84   -0.34    0.11    0.40   -0.07    0.00    0.00      -1.73    1.70   -0.28
#  53   -0.51   -0.16    0.01    0.29   -0.04    0.00    0.00      -0.41    1.88   -0.28
#  54   -0.37   -0.23    0.02   -0.01   -0.06    0.00    0.00      -0.65   -0.05   -0.28
#  55   -0.34   -0.51    0.22   -0.56   -0.11    0.00    0.00      -1.32   -1.35   -0.26

@<TRIPOS>MOLECULE
             1530        78
   55    58     0     0     0



@<TRIPOS>ATOM
      1 C1         11.2500    14.7655    64.5588 C.3        1          -0.1520
      2 C2         12.6017    15.4141    64.2533 C.3        1           0.0543
      3 O1         13.3962    15.4412    65.4408 O.3        1          -0.3198
      4 C3         14.7440    15.3747    65.2828 C.ar       1           0.1257
      5 C4         15.5265    14.7777    66.2763 C.ar       1          -0.2043
      6 C5         16.8774    14.6964    66.1463 C.ar       1          -0.0506
      7 C6         17.5008    15.2187    64.9981 C.ar       1          -0.0826
      8 C7         18.8924    15.1494    64.8350 C.ar       1           0.0113
      9 C8         19.4710    15.6734    63.6924 C.ar       1          -0.0484
     10 C9         18.6763    16.2717    62.6994 C.ar       1          -0.0795
     11 C10        17.3282    16.3482    62.8391 C.ar       1          -0.1405
     12 C11        16.7091    15.8247    63.9893 C.ar       1          -0.0058
     13 C12        15.3162    15.8870    64.1528 C.ar       1          -0.1596
     14 C13        20.9393    15.6036    63.5146 C.ar       1          -0.0158
     15 C14        21.6852    16.7717    63.3799 C.ar       1          -0.1223
     16 C15        23.0536    16.7023    63.2143 C.ar       1          -0.1123
     17 C16        23.8549    17.9702    63.0694 C.3        1           0.1072
     18 N1         23.9466    18.3317    61.6484 N.3        1          -0.5333
     19 C17        24.9205    17.4808    60.9502 C.3        1           0.0174
     20 C18        24.9423    17.8486    59.4651 C.3        1          -0.0029
     21 N2         25.3072    19.2636    59.3160 N.4        1          -0.5075
     22 H1         26.2160    19.4212    59.7248 H          1           0.4242
     23 H2         25.3333    19.5027    58.3362 H          1           0.4308
     24 C19        24.3120    20.1020    59.9976 C.3        1          -0.0016
     25 C20        24.2849    19.7529    61.4872 C.3        1           0.0229
     26 C21        23.6959    15.4748    63.1808 C.ar       1          -0.1102
     27 C22        22.9765    14.3063    63.3125 C.ar       1          -0.0851
     28 C23        21.5914    14.3557    63.4868 C.ar       1          -0.1078
     29 C24        20.8178    13.1116    63.6345 C.2        1           0.5099
     30 O2         20.6261    12.6391    64.7465 O.co2      1          -0.6813
     31 O3         20.3668    12.5506    62.6454 O.co2      1          -0.6590
     32 H3         10.6440    14.7449    63.6530 H          1           0.0646
     33 H4         11.4076    13.7471    64.9137 H          1           0.0662
     34 H5         10.7355    15.3426    65.3272 H          1           0.0767
     35 H6         13.1162    14.8371    63.4850 H          1           0.0593
     36 H7         12.4440    16.4326    63.8984 H          1           0.0614
     37 H8         15.0511    14.3760    67.1590 H          1           0.1246
     38 H9         17.4698    14.2330    66.9214 H          1           0.1271
     39 H10        19.5073    14.6910    65.5953 H          1           0.1161
     40 H11        19.1443    16.6760    61.8140 H          1           0.1126
     41 H12        16.7309    16.8110    62.0675 H          1           0.1201
     42 H13        14.7003    16.3414    63.3908 H          1           0.1281
     43 H14        21.1925    17.7325    63.4044 H          1           0.1113
     44 H15        23.3650    18.7746    63.6180 H          1           0.0920
     45 H16        24.8567    17.8149    63.4699 H          1           0.0507
     46 H17        25.9112    17.6357    61.3778 H          1           0.0593
     47 H18        24.6353    16.4347    61.0616 H          1           0.1326
     48 H19        25.6745    17.2283    58.9477 H          1           0.1373
     49 H20        23.9551    17.6807    59.0346 H          1           0.1401
     50 H21        24.5767    21.1522    59.8753 H          1           0.1350
     51 H22        23.3280    19.9225    59.5644 H          1           0.1389
     52 H23        23.5361    20.3644    61.9906 H          1           0.1217
     53 H24        25.2651    19.9451    61.9237 H          1           0.0579
     54 H25        24.7673    15.4335    63.0504 H          1           0.1148
     55 H26        23.4840    13.3532    63.2851 H          1           0.1303
@<TRIPOS>BOND
     1    1    2 1
     2    1   32 1
     3    1   33 1
     4    1   34 1
     5    2    3 1
     6    2   35 1
     7    2   36 1
     8    3    4 1
     9    4   13 ar
    10    4    5 ar
    11    5    6 ar
    12    5   37 1
    13    6    7 ar
    14    6   38 1
    15    7   12 ar
    16    7    8 ar
    17    8    9 ar
    18    8   39 1
    19    9   10 ar
    20    9   14 1
    21   10   11 ar
    22   10   40 1
    23   11   12 ar
    24   11   41 1
    25   12   13 ar
    26   13   42 1
    27   14   28 ar
    28   14   15 ar
    29   15   16 ar
    30   15   43 1
    31   16   17 1
    32   16   26 ar
    33   17   18 1
    34   17   44 1
    35   17   45 1
    36   18   25 1
    37   18   19 1
    38   19   20 1
    39   19   46 1
    40   19   47 1
    41   20   21 1
    42   20   48 1
    43   20   49 1
    44   21   22 1
    45   21   23 1
    46   21   24 1
    47   24   25 1
    48   24   50 1
    49   24   51 1
    50   25   52 1
    51   25   53 1
    52   26   27 ar
    53   26   54 1
    54   27   28 ar
    55   27   55 1
    56   28   29 1
    57   29   30 1
    58   29   31 2
##########                 Name:                 1530
##########          Protonation:                   78
##########               SMILES:   CCOc1ccc2cc(ccc2c1)c3cc(ccc3C(=O)[O-])CN4CC[NH2+]CC4
##########            Long Name:   2-(6-ethoxy-2-naphthyl)-4-(piperazin-4-ium-1-ylmethyl)benzoate
##########          FlexRecCode: 1
##########               Number:                  197
##########   Ligand Source File: /raid1/people/rgc/Examples/tdt/part3/ligand22set/build/ligand22set-0000001.db2.g
##########           GlobalRank: 20
##########                 Rank:                    5
##########               Setnum:                  275
##########             Matchnum:                 1583
##########                Cloud:                    1
##########        Electrostatic:           -36.239227
##########        Van der Waals:           -29.966797
##########  Ligand Polar Desolv:            41.500786
########## Ligand Apolar Desolv:            -5.108036
##########      Internal Energy:             0.000000
##########      Receptor Energy: 0.0
########## Receptor Desolvation:             0.000000
########## Receptor Hydrophobic:             0.000000
##########         Total Energy: -29.81
##########        Ligand Charge:             0.000000
##########            Arbitrary:    +999.9990
##########     heavy atom count:   29
##########           pose count:   10
##########        Ligand Energy:             0.000000
# num electro vdwattr vdwrepu polsolv apolsol rdesolv rhydroe totalscore fullpol fullapo
#   1   -1.11   -1.48    0.64    0.07   -0.14    0.00    0.00      -2.02    0.11   -0.21
#   2    0.49   -1.61    0.56   -0.05   -0.07    0.00    0.00      -0.68   -0.09   -0.11
#   3   -3.18   -1.78    0.41    1.55    0.57    0.00    0.00      -2.43    2.37    0.88
#   4    1.44   -2.78    2.06   -0.65   -0.19    0.00    0.00      -0.13   -1.04   -0.31
#   5   -1.54   -3.01    1.07    1.04   -0.27    0.00    0.00      -2.72    1.63   -0.43
#   6   -0.36   -2.78    0.69    0.70   -0.30    0.00    0.00      -2.05    1.08   -0.46
#   7   -1.02   -2.15    0.44    1.06   -0.25    0.00    0.00      -1.91    1.69   -0.40
#   8    0.12   -2.04    0.47    0.41   -0.17    0.00    0.00      -1.21    0.71   -0.30
#   9   -0.55   -1.79    0.33    0.46   -0.16    0.00    0.00      -1.70    0.88   -0.30
#  10   -1.02   -3.08    1.99    0.52   -0.24    0.00    0.00      -1.84    0.96   -0.45
#  11   -1.95   -4.19    3.34    0.67   -0.27    0.00    0.00      -2.39    1.14   -0.45
#  12   -0.09   -2.68    0.76    0.30   -0.24    0.00    0.00      -1.94    0.50   -0.40
#  13   -2.04   -3.13    1.46    0.97   -0.27    0.00    0.00      -3.01    1.63   -0.45
#  14   -0.08   -1.64    0.36    0.18   -0.17    0.00    0.00      -1.36    0.39   -0.37
#  15   -0.27   -1.67    0.38    0.09   -0.16    0.00    0.00      -1.63    0.20   -0.35
#  16    0.26   -1.32    0.15   -0.02   -0.14    0.00    0.00      -1.08   -0.06   -0.34
#  17   -0.70   -0.91    0.12    0.38   -0.15    0.00    0.00      -1.26    1.00   -0.39
#  18    6.29   -1.06    0.07   -3.08    1.31    0.00    0.00       3.53   -7.58    3.21
#  19   -0.29   -0.79    0.09   -0.03   -0.15    0.00    0.00      -1.17   -0.09   -0.39
#  20    0.08   -1.73    0.69    0.31   -0.23    0.00    0.00      -0.87    0.66   -0.48
#  21   15.35   -3.02    3.32   -5.51    0.37    0.00    0.00      10.52  -13.14    0.89
#  22  -13.15   -0.06    0.01    4.42    0.18    0.00    0.00      -8.61   14.12    0.57
#  23  -15.31   -0.22    0.09    7.13    0.27    0.00    0.00      -8.04   15.14    0.57
#  24    0.04   -1.72    1.16    0.24   -0.19    0.00    0.00      -0.46    0.62   -0.48
#  25   -0.35   -1.30    0.62    0.09   -0.16    0.00    0.00      -1.10    0.23   -0.42
#  26    0.21   -1.44    0.25    0.17   -0.18    0.00    0.00      -1.00    0.42   -0.45
#  27    0.01   -1.84    0.48    0.82   -0.22    0.00    0.00      -0.75    1.72   -0.46
#  28   -0.32   -1.75    0.47    2.24   -0.22    0.00    0.00       0.42    4.12   -0.41
#  29    1.93   -2.21    0.40   -8.69   -0.11    0.00    0.00      -8.68  -13.92   -0.17
#  30   -2.71   -4.18    6.63   17.31   -0.26    0.00    0.00      16.79   26.91   -0.41
#  31   -1.95   -2.70    0.60   14.63   -0.20    0.00    0.00      10.39   22.24   -0.30
#  32    0.39   -0.35    0.04   -0.02   -0.12    0.00    0.00      -0.07   -0.05   -0.28
#  33    0.52   -1.09    3.47   -0.05   -0.13    0.00    0.00       2.73   -0.10   -0.28
#  34    0.49   -0.37    0.05    0.09   -0.15    0.00    0.00       0.11    0.17   -0.28
#  35    0.68   -0.70    0.44   -0.06   -0.13    0.00    0.00       0.22   -0.13   -0.27
#  36    0.49   -0.68    0.40   -0.10   -0.14    0.00    0.00      -0.03   -0.20   -0.27
#  37    0.42   -0.70    0.18   -0.51   -0.13    0.00    0.00      -0.73   -0.89   -0.22
#  38    0.32   -0.66    0.13   -0.93   -0.17    0.00    0.00      -1.31   -1.53   -0.28
#  39    0.95   -0.62    0.44   -0.60   -0.12    0.00    0.00       0.05   -1.35   -0.27
#  40    0.63   -0.68    0.45   -0.45   -0.13    0.00    0.00      -0.18   -0.96   -0.28
#  41    0.82   -1.83    5.07   -0.55   -0.18    0.00    0.00       3.33   -0.85   -0.28
#  42    0.85   -1.02    1.16   -0.60   -0.16    0.00    0.00       0.23   -1.09   -0.28
#  43    0.40   -0.48    0.25    0.14   -0.10    0.00    0.00       0.21    0.42   -0.28
#  44   -0.44   -0.60    0.20    0.41   -0.11    0.00    0.00      -0.54    1.02   -0.27
#  45   -0.39   -0.22    0.04    0.16   -0.05    0.00    0.00      -0.47    0.89   -0.28
#  46   -0.99   -0.20    0.02    0.35   -0.06    0.00    0.00      -0.88    1.64   -0.28
#  47   -1.71   -0.36    0.14    0.07   -0.06    0.00    0.00      -1.92    0.25   -0.21
#  48   -4.68   -1.14    1.04    2.08   -0.15    0.00    0.00      -2.85    4.02   -0.28
#  49   -3.34   -0.42    0.10    0.92   -0.11    0.00    0.00      -2.86    2.27   -0.28
#  50   -3.43   -0.67    0.82    1.86   -0.09    0.00    0.00      -1.51    5.59   -0.28
#  51   -3.42   -0.65    0.39    1.16   -0.11    0.00    0.00      -2.63    2.85   -0.28
#  52   -1.68   -1.26    2.55    0.63   -0.10    0.00    0.00       0.13    1.70   -0.28
#  53   -0.70   -0.19    0.02    0.35   -0.05    0.00    0.00      -0.57    1.88   -0.28
#  54   -0.37   -0.23    0.02   -0.01   -0.06    0.00    0.00      -0.65   -0.05   -0.28
#  55   -0.25   -0.47    0.14   -0.55   -0.11    0.00    0.00      -1.24   -1.35   -0.26

@<TRIPOS>MOLECULE
             1530        78
   55    58     0     0     0



@<TRIPOS>ATOM
      1 C1         11.6513    14.0279    64.3985 C.3        1          -0.1520
      2 C2         12.5518    15.2581    64.2701 C.3        1           0.0543
      3 O1         13.3443    15.3938    65.4514 O.3        1          -0.3198
      4 C3         14.6935    15.3554    65.2968 C.ar       1           0.1257
      5 C4         15.4924    14.8546    66.3296 C.ar       1          -0.2043
      6 C5         16.8452    14.8036    66.2038 C.ar       1          -0.0506
      7 C6         17.4539    15.2600    65.0202 C.ar       1          -0.0826
      8 C7         18.8471    15.2198    64.8606 C.ar       1           0.0113
      9 C8         19.4110    15.6769    63.6826 C.ar       1          -0.0484
     10 C9         18.5998    16.1788    62.6502 C.ar       1          -0.0795
     11 C10        17.2500    16.2258    62.7859 C.ar       1          -0.1405
     12 C11        16.6456    15.7685    63.9716 C.ar       1          -0.0058
     13 C12        15.2514    15.8017    64.1321 C.ar       1          -0.1596
     14 C13        20.8808    15.6375    63.5082 C.ar       1          -0.0158
     15 C14        21.5923    16.8142    63.2888 C.ar       1          -0.1223
     16 C15        22.9623    16.7730    63.1268 C.ar       1          -0.1123
     17 C16        23.7263    18.0501    62.8899 C.3        1           0.1072
     18 N1         23.0211    18.8644    61.8911 N.3        1          -0.5333
     19 C17        23.2299    18.3340    60.5364 C.3        1           0.0174
     20 C18        22.4327    19.1725    59.5350 C.3        1          -0.0029
     21 N2         22.8757    20.5712    59.6052 N.4        1          -0.5075
     22 H1         23.8606    20.6228    59.3930 H          1           0.4242
     23 H2         22.3584    21.1216    58.9362 H          1           0.4308
     24 C19        22.6381    21.0945    60.9569 C.3        1          -0.0016
     25 C20        23.4370    20.2719    61.9703 C.3        1           0.0229
     26 C21        23.6403    15.5655    63.1808 C.ar       1          -0.1102
     27 C22        22.9552    14.3891    63.3971 C.ar       1          -0.0851
     28 C23        21.5691    14.4104    63.5693 C.ar       1          -0.1078
     29 C24        20.8321    13.1581    63.8072 C.2        1           0.5099
     30 O2         20.6535    12.7613    64.9505 O.co2      1          -0.6813
     31 O3         20.3984    12.5144    62.8616 O.co2      1          -0.6590
     32 H3         11.0467    13.9244    63.4975 H          1           0.0646
     33 H4         12.2677    13.1381    64.5265 H          1           0.0662
     34 H5         10.9977    14.1446    65.2631 H          1           0.0767
     35 H6         13.2052    15.1415    63.4056 H          1           0.0593
     36 H7         11.9352    16.1478    64.1422 H          1           0.0614
     37 H8         15.0284    14.5037    67.2395 H          1           0.1246
     38 H9         17.4504    14.4147    67.0095 H          1           0.1271
     39 H10        19.4746    14.8354    65.6511 H          1           0.1161
     40 H11        19.0565    16.5319    61.7373 H          1           0.1126
     41 H12        16.6399    16.6142    61.9838 H          1           0.1201
     42 H13        14.6230    16.1819    63.3402 H          1           0.1281
     43 H14        21.0717    17.7594    63.2448 H          1           0.1113
     44 H15        23.8026    18.6065    63.8240 H          1           0.0920
     45 H16        24.7259    17.8133    62.5253 H          1           0.0507
     46 H17        24.2900    18.3802    60.2871 H          1           0.0593
     47 H18        22.8909    17.2988    60.4951 H          1           0.1326
     48 H19        22.5974    18.7894    58.5279 H          1           0.1373
     49 H20        21.3713    19.1149    59.7765 H          1           0.1401
     50 H21        22.9553    22.1362    61.0042 H          1           0.1350
     51 H22        21.5757    21.0272    61.1912 H          1           0.1389
     52 H23        23.2494    20.6507    62.9749 H          1           0.1217
     53 H24        24.5006    20.3501    61.7444 H          1           0.0579
     54 H25        24.7124    15.5463    63.0522 H          1           0.1148
     55 H26        23.4904    13.4517    63.4376 H          1           0.1303
@<TRIPOS>BOND
     1    1    2 1
     2    1   32 1
     3    1   33 1
     4    1   34 1
     5    2    3 1
     6    2   35 1
     7    2   36 1
     8    3    4 1
     9    4   13 ar
    10    4    5 ar
    11    5    6 ar
    12    5   37 1
    13    6    7 ar
    14    6   38 1
    15    7   12 ar
    16    7    8 ar
    17    8    9 ar
    18    8   39 1
    19    9   10 ar
    20    9   14 1
    21   10   11 ar
    22   10   40 1
    23   11   12 ar
    24   11   41 1
    25   12   13 ar
    26   13   42 1
    27   14   28 ar
    28   14   15 ar
    29   15   16 ar
    30   15   43 1
    31   16   17 1
    32   16   26 ar
    33   17   18 1
    34   17   44 1
    35   17   45 1
    36   18   25 1
    37   18   19 1
    38   19   20 1
    39   19   46 1
    40   19   47 1
    41   20   21 1
    42   20   48 1
    43   20   49 1
    44   21   22 1
    45   21   23 1
    46   21   24 1
    47   24   25 1
    48   24   50 1
    49   24   51 1
    50   25   52 1
    51   25   53 1
    52   26   27 ar
    53   26   54 1
    54   27   28 ar
    55   27   55 1
    56   28   29 1
    57   29   30 1
    58   29   31 2
##########                 Name:                 1530
##########          Protonation:                   20
##########               SMILES:   CCOc1ccc2cc(ccc2c1)c3cc(ccc3C(=O)[O-])C[NH+]4CCNCC4
##########            Long Name:   2-(6-ethoxy-2-naphthyl)-4-(piperazin-1-ium-1-ylmethyl)benzoate
##########          FlexRecCode: 1
##########               Number:                   46
##########   Ligand Source File: /raid1/people/rgc/Examples/tdt/part3/ligand22set/build/ligand22set-0000001.db2.g
##########           GlobalRank: 20
##########                 Rank:                    1
##########               Setnum:                   40
##########             Matchnum:                 9373
##########                Cloud:                    1
##########        Electrostatic:           -20.420828
##########        Van der Waals:           -36.642845
##########  Ligand Polar Desolv:            33.287567
########## Ligand Apolar Desolv:            -5.671123
##########      Internal Energy:             0.000000
##########      Receptor Energy: 0.0
########## Receptor Desolvation:             0.000000
########## Receptor Hydrophobic:             0.000000
##########         Total Energy: -29.45
##########        Ligand Charge:             0.000000
##########            Arbitrary:    +999.9990
##########     heavy atom count:   29
##########           pose count:   10
##########        Ligand Energy:             0.000000
# num electro vdwattr vdwrepu polsolv apolsol rdesolv rhydroe totalscore fullpol fullapo
#   1   -1.01   -1.29    0.19    0.10   -0.13    0.00    0.00      -2.14    0.16   -0.20
#   2    0.49   -1.65    0.48   -0.07   -0.07    0.00    0.00      -0.81   -0.12   -0.11
#   3   -3.22   -1.77    0.38    1.61    0.57    0.00    0.00      -2.42    2.47    0.88
#   4    1.51   -2.76    1.92   -0.63   -0.19    0.00    0.00      -0.14   -1.00   -0.31
#   5   -1.43   -3.22    1.51    1.11   -0.27    0.00    0.00      -2.31    1.74   -0.43
#   6   -0.32   -2.92    0.93    0.70   -0.30    0.00    0.00      -1.91    1.09   -0.46
#   7   -1.01   -2.16    0.47    1.01   -0.25    0.00    0.00      -1.94    1.60   -0.40
#   8    0.17   -2.00    0.44    0.40   -0.17    0.00    0.00      -1.17    0.69   -0.30
#   9   -0.70   -1.79    0.34    0.32   -0.16    0.00    0.00      -1.99    0.62   -0.30
#  10   -1.13   -3.19    2.71    0.31   -0.24    0.00    0.00      -1.53    0.57   -0.45
#  11   -2.11   -4.05    2.94    0.56   -0.26    0.00    0.00      -2.92    0.95   -0.45
#  12   -0.03   -2.62    0.69    0.28   -0.24    0.00    0.00      -1.92    0.48   -0.40
#  13   -2.16   -3.08    1.26    0.94   -0.27    0.00    0.00      -3.30    1.58   -0.45
#  14   -0.04   -1.63    0.36    0.14   -0.17    0.00    0.00      -1.34    0.30   -0.37
#  15   -0.22   -1.74    0.43   -0.20   -0.19    0.00    0.00      -1.91   -0.44   -0.43
#  16    0.35   -1.40    0.18   -0.43   -0.13    0.00    0.00      -1.43   -1.05   -0.33
#  17   -0.31   -1.13    0.25    0.62   -0.14    0.00    0.00      -0.71    1.61   -0.36
#  18    4.10   -0.69    0.04   -2.81    0.09    0.00    0.00       0.73   -8.38    0.28
#  19   -5.24   -0.01    0.00    1.64    0.09    0.00    0.00      -3.53   10.14    0.54
#  20    0.11   -0.64    0.05   -0.01   -0.11    0.00    0.00      -0.61   -0.03   -0.36
#  21   -0.64   -0.99    0.47    0.14   -0.16    0.00    0.00      -1.17    0.45   -0.51
#  22   13.80   -2.49    3.42   -3.15    0.83    0.00    0.00      12.41  -10.89    2.86
#  23   -0.46   -1.19    0.45    0.12   -0.17    0.00    0.00      -1.26    0.34   -0.51
#  24    0.03   -0.50    0.03    0.09   -0.11    0.00    0.00      -0.46    0.32   -0.39
#  25    0.22   -1.45    0.25   -0.18   -0.15    0.00    0.00      -1.30   -0.44   -0.36
#  26    0.04   -1.88    0.56    0.42   -0.22    0.00    0.00      -1.09    0.88   -0.46
#  27   -0.22   -1.82    0.64    1.45   -0.22    0.00    0.00      -0.17    2.66   -0.41
#  28    1.81   -2.23    0.41   -7.51   -0.10    0.00    0.00      -7.62  -12.03   -0.16
#  29   -2.31   -3.32    2.14   16.01   -0.26    0.00    0.00      12.27   24.59   -0.40
#  30   -1.85   -2.93    1.01   13.51   -0.20    0.00    0.00       9.54   20.66   -0.30
#  31    0.27   -0.46    0.09   -0.05   -0.14    0.00    0.00      -0.28   -0.11   -0.28
#  32    0.53   -0.38    0.07    0.07   -0.13    0.00    0.00       0.15    0.15   -0.28
#  33    0.41   -0.48    0.17   -0.04   -0.15    0.00    0.00      -0.08   -0.07   -0.28
#  34    0.69   -0.71    0.65   -0.08   -0.12    0.00    0.00       0.42   -0.16   -0.26
#  35    0.48   -0.92    0.97   -0.12   -0.14    0.00    0.00       0.27   -0.22   -0.27
#  36    0.34   -0.74    0.24   -0.54   -0.13    0.00    0.00      -0.82   -0.93   -0.22
#  37    0.13   -0.71    0.21   -0.91   -0.17    0.00    0.00      -1.44   -1.49   -0.28
#  38    0.88   -0.57    0.32   -0.54   -0.12    0.00    0.00      -0.03   -1.24   -0.27
#  39    0.72   -0.63    0.39   -0.11   -0.13    0.00    0.00       0.24   -0.24   -0.28
#  40    0.92   -1.43    2.00   -0.34   -0.18    0.00    0.00       0.98   -0.53   -0.28
#  41    0.78   -1.19    2.23   -0.58   -0.16    0.00    0.00       1.07   -1.03   -0.28
#  42    0.42   -0.50    0.24    0.87   -0.10    0.00    0.00       0.94    2.44   -0.28
#  43   -0.63   -0.49    0.10    1.93   -0.11    0.00    0.00       0.80    4.73   -0.28
#  44   -1.02   -0.84    1.36    1.61   -0.08    0.00    0.00       1.02    5.37   -0.28
#  45   -1.99   -0.39    0.16    0.42   -0.05    0.00    0.00      -1.86    1.67   -0.21
#  46   -1.07   -0.19    0.02    0.61   -0.05    0.00    0.00      -0.68    3.43   -0.28
#  47   -1.63   -0.47    0.28    0.21   -0.09    0.00    0.00      -1.69    0.69   -0.28
#  48   -2.10   -0.21    0.04    0.22   -0.06    0.00    0.00      -2.11    1.10   -0.28
#  49  -11.62   -0.20    0.11    1.52    0.18    0.00    0.00     -10.00    4.77    0.58
#  50   -1.22   -0.67    0.49    0.41   -0.11    0.00    0.00      -1.10    1.09   -0.28
#  51   -1.20   -0.35    0.09    0.63   -0.08    0.00    0.00      -0.92    2.08   -0.28
#  52   -0.98   -0.12    0.01    0.42   -0.03    0.00    0.00      -0.70    3.82   -0.28
#  53   -0.98   -0.17    0.01    0.96   -0.05    0.00    0.00      -0.22    5.17   -0.28
#  54   -0.39   -0.22    0.02    0.59   -0.06    0.00    0.00      -0.07    2.53   -0.28
#  55   -0.41   -0.54    0.26   -0.39   -0.11    0.00    0.00      -1.19   -0.93   -0.26

@<TRIPOS>MOLECULE
             1530        20
   55    58     0     0     0



@<TRIPOS>ATOM
      1 C1         11.2420    14.8401    64.5446 C.3        1          -0.1522
      2 C2         12.6010    15.4833    64.2613 C.3        1           0.0538
      3 O1         13.3976    15.4558    65.4473 O.3        1          -0.3187
      4 C3         14.7442    15.3790    65.2843 C.ar       1           0.1304
      5 C4         15.5209    14.7354    66.2530 C.ar       1          -0.2024
      6 C5         16.8706    14.6428    66.1172 C.ar       1          -0.0501
      7 C6         17.4985    15.2007    64.9883 C.ar       1          -0.0840
      8 C7         18.8889    15.1207    64.8199 C.ar       1           0.0165
      9 C8         19.4721    15.6806    63.6968 C.ar       1          -0.0627
     10 C9         18.6832    16.3255    62.7287 C.ar       1          -0.0796
     11 C10        17.3364    16.4130    62.8739 C.ar       1          -0.1372
     12 C11        16.7127    15.8539    64.0048 C.ar       1          -0.0021
     13 C12        15.3209    15.9268    64.1733 C.ar       1          -0.1612
     14 C13        20.9392    15.5998    63.5135 C.ar       1          -0.0075
     15 C14        21.6989    16.7631    63.4215 C.ar       1          -0.0995
     16 C15        23.0661    16.6835    63.2507 C.ar       1          -0.1780
     17 C16        23.8827    17.9463    63.1522 C.3        1           0.0529
     18 N1         23.9765    18.3602    61.7459 N.4        1          -0.3846
     19 H1         23.0872    18.2135    61.2923 H          1           0.4198
     20 C17        24.3317    19.7838    61.6775 C.3        1          -0.0085
     21 C18        24.4112    20.2200    60.2128 C.3        1           0.0305
     22 N2         25.4224    19.4111    59.5179 N.3        1          -0.6900
     23 C19        25.0931    17.9811    59.5995 C.3        1           0.0296
     24 C20        25.0083    17.5635    61.0690 C.3        1          -0.0036
     25 C21        23.6935    15.4505    63.1695 C.ar       1          -0.1144
     26 C22        22.9602    14.2865    63.2583 C.ar       1          -0.0831
     27 C23        21.5760    14.3461    63.4371 C.ar       1          -0.0834
     28 C24        20.7876    13.1068    63.5392 C.2        1           0.5061
     29 O2         20.5916    12.5948    64.6330 O.co2      1          -0.6738
     30 O3         20.3283    12.5891    62.5304 O.co2      1          -0.6495
     31 H2         10.6345    14.8610    63.6399 H          1           0.0664
     32 H3         11.3878    13.8070    64.8604 H          1           0.0774
     33 H4         10.7357    15.3938    65.3353 H          1           0.0652
     34 H5         13.1074    14.9296    63.4706 H          1           0.0602
     35 H6         12.4553    16.5164    63.9453 H          1           0.0619
     36 H7         15.0423    14.3065    67.1208 H          1           0.1263
     37 H8         17.4585    14.1434    66.8731 H          1           0.1282
     38 H9         19.4994    14.6265    65.5611 H          1           0.1168
     39 H10        19.1547    16.7574    61.8582 H          1           0.1133
     40 H11        16.7433    16.9117    62.1216 H          1           0.1223
     41 H12        14.7094    16.4170    63.4303 H          1           0.1298
     42 H13        21.2180    17.7282    63.4834 H          1           0.1244
     43 H14        23.4033    18.7351    63.7320 H          1           0.1313
     44 H15        24.8830    17.7636    63.5448 H          1           0.1320
     45 H16        23.5721    20.3729    62.1914 H          1           0.1402
     46 H17        25.2984    19.9405    62.1562 H          1           0.1341
     47 H18        23.4410    20.0764    59.7375 H          1           0.0577
     48 H19        24.6894    21.2728    60.1616 H          1           0.1219
     49 H20        25.5232    19.7049    58.5579 H          1           0.3709
     50 H21        24.1342    17.8004    59.1138 H          1           0.0568
     51 H22        25.8690    17.4002    59.1005 H          1           0.1203
     52 H23        25.9715    17.7317    61.5511 H          1           0.1348
     53 H24        24.7504    16.5063    61.1320 H          1           0.1327
     54 H25        24.7641    15.4011    63.0354 H          1           0.1223
     55 H26        23.4560    13.3292    63.1938 H          1           0.1394
@<TRIPOS>BOND
     1    1    2 1
     2    1   31 1
     3    1   32 1
     4    1   33 1
     5    2    3 1
     6    2   34 1
     7    2   35 1
     8    3    4 1
     9    4   13 ar
    10    4    5 ar
    11    5    6 ar
    12    5   36 1
    13    6    7 ar
    14    6   37 1
    15    7   12 ar
    16    7    8 ar
    17    8    9 ar
    18    8   38 1
    19    9   10 ar
    20    9   14 1
    21   10   11 ar
    22   10   39 1
    23   11   12 ar
    24   11   40 1
    25   12   13 ar
    26   13   41 1
    27   14   27 ar
    28   14   15 ar
    29   15   16 ar
    30   15   42 1
    31   16   17 1
    32   16   25 ar
    33   17   18 1
    34   17   43 1
    35   17   44 1
    36   18   19 1
    37   18   24 1
    38   18   20 1
    39   20   21 1
    40   20   45 1
    41   20   46 1
    42   21   22 1
    43   21   47 1
    44   21   48 1
    45   22   23 1
    46   22   49 1
    47   23   24 1
    48   23   50 1
    49   23   51 1
    50   24   52 1
    51   24   53 1
    52   25   26 ar
    53   25   54 1
    54   26   27 ar
    55   26   55 1
    56   27   28 1
    57   28   29 1
    58   28   30 2
##########                 Name:                 1530
##########          Protonation:                   20
##########               SMILES:   CCOc1ccc2cc(ccc2c1)c3cc(ccc3C(=O)[O-])C[NH+]4CCNCC4
##########            Long Name:   2-(6-ethoxy-2-naphthyl)-4-(piperazin-1-ium-1-ylmethyl)benzoate
##########          FlexRecCode: 1
##########               Number:                   46
##########   Ligand Source File: /raid1/people/rgc/Examples/tdt/part3/ligand22set/build/ligand22set-0000001.db2.g
##########           GlobalRank: 20
##########                 Rank:                    2
##########               Setnum:                  146
##########             Matchnum:                 9373
##########                Cloud:                    1
##########        Electrostatic:           -19.981590
##########        Van der Waals:           -36.077240
##########  Ligand Polar Desolv:            32.901764
########## Ligand Apolar Desolv:            -5.466922
##########      Internal Energy:             0.000000
##########      Receptor Energy: 0.0
########## Receptor Desolvation:             0.000000
########## Receptor Hydrophobic:             0.000000
##########         Total Energy: -28.62
##########        Ligand Charge:             0.000000
##########            Arbitrary:    +999.9990
##########     heavy atom count:   29
##########           pose count:   10
##########        Ligand Energy:             0.000000
# num electro vdwattr vdwrepu polsolv apolsol rdesolv rhydroe totalscore fullpol fullapo
#   1   -1.01   -1.29    0.19    0.10   -0.13    0.00    0.00      -2.14    0.16   -0.20
#   2    0.49   -1.65    0.48   -0.07   -0.07    0.00    0.00      -0.81   -0.12   -0.11
#   3   -3.22   -1.77    0.38    1.61    0.57    0.00    0.00      -2.42    2.47    0.88
#   4    1.51   -2.76    1.92   -0.63   -0.19    0.00    0.00      -0.14   -1.00   -0.31
#   5   -1.43   -3.22    1.51    1.11   -0.27    0.00    0.00      -2.31    1.74   -0.43
#   6   -0.32   -2.92    0.93    0.70   -0.30    0.00    0.00      -1.91    1.09   -0.46
#   7   -1.01   -2.16    0.47    1.01   -0.25    0.00    0.00      -1.94    1.60   -0.40
#   8    0.17   -2.00    0.44    0.40   -0.17    0.00    0.00      -1.17    0.69   -0.30
#   9   -0.70   -1.79    0.34    0.32   -0.16    0.00    0.00      -1.99    0.62   -0.30
#  10   -1.13   -3.19    2.71    0.31   -0.24    0.00    0.00      -1.53    0.57   -0.45
#  11   -2.11   -4.05    2.94    0.56   -0.26    0.00    0.00      -2.92    0.95   -0.45
#  12   -0.03   -2.62    0.69    0.28   -0.24    0.00    0.00      -1.92    0.48   -0.40
#  13   -2.16   -3.08    1.26    0.94   -0.27    0.00    0.00      -3.30    1.58   -0.45
#  14   -0.04   -1.63    0.36    0.14   -0.17    0.00    0.00      -1.34    0.30   -0.37
#  15   -0.22   -1.74    0.43   -0.20   -0.19    0.00    0.00      -1.91   -0.44   -0.43
#  16    0.35   -1.40    0.18   -0.43   -0.13    0.00    0.00      -1.43   -1.05   -0.33
#  17   -0.31   -1.13    0.25    0.62   -0.14    0.00    0.00      -0.71    1.61   -0.36
#  18    4.10   -0.69    0.04   -2.81    0.09    0.00    0.00       0.73   -8.38    0.28
#  19   -4.32   -0.01    0.00    1.44    0.08    0.00    0.00      -2.81   10.14    0.54
#  20    0.12   -0.68    0.04   -0.01   -0.15    0.00    0.00      -0.68   -0.03   -0.36
#  21   -0.76   -1.39    0.40    0.20   -0.23    0.00    0.00      -1.77    0.45   -0.51
#  22   20.23   -3.35    5.33   -4.20    1.10    0.00    0.00      19.11  -10.89    2.86
#  23   -0.55   -0.90    0.43    0.10   -0.15    0.00    0.00      -1.07    0.34   -0.51
#  24    0.04   -0.56    0.04    0.09   -0.11    0.00    0.00      -0.50    0.32   -0.39
#  25    0.22   -1.45    0.25   -0.18   -0.15    0.00    0.00      -1.30   -0.44   -0.36
#  26    0.04   -1.88    0.56    0.42   -0.22    0.00    0.00      -1.09    0.88   -0.46
#  27   -0.22   -1.82    0.64    1.45   -0.22    0.00    0.00      -0.17    2.66   -0.41
#  28    1.81   -2.23    0.41   -7.51   -0.10    0.00    0.00      -7.62  -12.03   -0.16
#  29   -2.31   -3.32    2.14   16.01   -0.26    0.00    0.00      12.27   24.59   -0.40
#  30   -1.85   -2.93    1.01   13.51   -0.20    0.00    0.00       9.54   20.66   -0.30
#  31    0.27   -0.46    0.09   -0.05   -0.14    0.00    0.00      -0.28   -0.11   -0.28
#  32    0.53   -0.38    0.07    0.07   -0.13    0.00    0.00       0.15    0.15   -0.28
#  33    0.41   -0.48    0.17   -0.04   -0.15    0.00    0.00      -0.08   -0.07   -0.28
#  34    0.69   -0.71    0.65   -0.08   -0.12    0.00    0.00       0.42   -0.16   -0.26
#  35    0.48   -0.92    0.97   -0.12   -0.14    0.00    0.00       0.27   -0.22   -0.27
#  36    0.34   -0.74    0.24   -0.54   -0.13    0.00    0.00      -0.82   -0.93   -0.22
#  37    0.13   -0.71    0.21   -0.91   -0.17    0.00    0.00      -1.44   -1.49   -0.28
#  38    0.88   -0.57    0.32   -0.54   -0.12    0.00    0.00      -0.03   -1.24   -0.27
#  39    0.72   -0.63    0.39   -0.11   -0.13    0.00    0.00       0.24   -0.24   -0.28
#  40    0.92   -1.43    2.00   -0.34   -0.18    0.00    0.00       0.98   -0.53   -0.28
#  41    0.78   -1.19    2.23   -0.58   -0.16    0.00    0.00       1.07   -1.03   -0.28
#  42    0.42   -0.50    0.24    0.87   -0.10    0.00    0.00       0.94    2.44   -0.28
#  43   -0.63   -0.49    0.10    1.93   -0.11    0.00    0.00       0.80    4.73   -0.28
#  44   -1.02   -0.84    1.36    1.61   -0.08    0.00    0.00       1.02    5.37   -0.28
#  45   -1.38   -0.22    0.03    0.40   -0.05    0.00    0.00      -1.23    1.67   -0.21
#  46   -1.91   -0.26    0.03    0.93   -0.08    0.00    0.00      -1.29    3.43   -0.28
#  47   -1.47   -0.61    0.30    0.29   -0.12    0.00    0.00      -1.61    0.69   -0.28
#  48   -3.39   -0.59    0.27    0.46   -0.12    0.00    0.00      -3.37    1.10   -0.28
#  49  -16.09   -0.28    0.27    2.00    0.24    0.00    0.00     -13.87    4.77    0.58
#  50   -1.08   -0.35    0.21    0.22   -0.06    0.00    0.00      -1.06    1.09   -0.28
#  51   -1.68   -0.18    0.03    0.29   -0.04    0.00    0.00      -1.57    2.08   -0.28
#  52   -1.50   -0.28    0.05    0.87   -0.06    0.00    0.00      -0.92    3.82   -0.28
#  53   -1.00   -0.17    0.02    0.75   -0.04    0.00    0.00      -0.43    5.17   -0.28
#  54   -0.39   -0.22    0.02    0.59   -0.06    0.00    0.00      -0.07    2.53   -0.28
#  55   -0.41   -0.54    0.26   -0.39   -0.11    0.00    0.00      -1.19   -0.93   -0.26

@<TRIPOS>MOLECULE
             1530        20
   55    58     0     0     0



@<TRIPOS>ATOM
      1 C1         11.2420    14.8401    64.5446 C.3        1          -0.1522
      2 C2         12.6010    15.4833    64.2613 C.3        1           0.0538
      3 O1         13.3976    15.4558    65.4473 O.3        1          -0.3187
      4 C3         14.7442    15.3790    65.2843 C.ar       1           0.1304
      5 C4         15.5209    14.7354    66.2530 C.ar       1          -0.2024
      6 C5         16.8706    14.6428    66.1172 C.ar       1          -0.0501
      7 C6         17.4985    15.2007    64.9883 C.ar       1          -0.0840
      8 C7         18.8889    15.1207    64.8199 C.ar       1           0.0165
      9 C8         19.4721    15.6806    63.6968 C.ar       1          -0.0627
     10 C9         18.6832    16.3255    62.7287 C.ar       1          -0.0796
     11 C10        17.3364    16.4130    62.8739 C.ar       1          -0.1372
     12 C11        16.7127    15.8539    64.0048 C.ar       1          -0.0021
     13 C12        15.3209    15.9268    64.1733 C.ar       1          -0.1612
     14 C13        20.9392    15.5998    63.5135 C.ar       1          -0.0075
     15 C14        21.6989    16.7631    63.4215 C.ar       1          -0.0995
     16 C15        23.0661    16.6835    63.2507 C.ar       1          -0.1780
     17 C16        23.8827    17.9463    63.1522 C.3        1           0.0529
     18 N1         23.9765    18.3602    61.7459 N.4        1          -0.3846
     19 H1         24.4202    17.6299    61.2094 H          1           0.4198
     20 C17        22.6283    18.6055    61.2171 C.3        1          -0.0085
     21 C18        22.7243    19.0186    59.7467 C.3        1           0.0305
     22 N2         23.5417    20.2348    59.6349 N.3        1          -0.6900
     23 C19        24.8869    20.0118    60.1834 C.3        1           0.0296
     24 C20        24.7729    19.5907    61.6501 C.3        1          -0.0036
     25 C21        23.6935    15.4505    63.1695 C.ar       1          -0.1144
     26 C22        22.9602    14.2865    63.2583 C.ar       1          -0.0831
     27 C23        21.5760    14.3461    63.4371 C.ar       1          -0.0834
     28 C24        20.7876    13.1068    63.5392 C.2        1           0.5061
     29 O2         20.5916    12.5948    64.6330 O.co2      1          -0.6738
     30 O3         20.3283    12.5891    62.5304 O.co2      1          -0.6495
     31 H2         10.6345    14.8610    63.6399 H          1           0.0664
     32 H3         11.3878    13.8070    64.8604 H          1           0.0774
     33 H4         10.7357    15.3938    65.3353 H          1           0.0652
     34 H5         13.1074    14.9296    63.4706 H          1           0.0602
     35 H6         12.4553    16.5164    63.9453 H          1           0.0619
     36 H7         15.0423    14.3065    67.1208 H          1           0.1263
     37 H8         17.4585    14.1434    66.8731 H          1           0.1282
     38 H9         19.4994    14.6265    65.5611 H          1           0.1168
     39 H10        19.1547    16.7574    61.8582 H          1           0.1133
     40 H11        16.7433    16.9117    62.1216 H          1           0.1223
     41 H12        14.7094    16.4170    63.4303 H          1           0.1298
     42 H13        21.2180    17.7282    63.4834 H          1           0.1244
     43 H14        23.4033    18.7351    63.7320 H          1           0.1313
     44 H15        24.8830    17.7636    63.5448 H          1           0.1320
     45 H16        22.0340    17.6956    61.3007 H          1           0.1402
     46 H17        22.1534    19.4032    61.7883 H          1           0.1341
     47 H18        23.1866    18.2156    59.1728 H          1           0.0577
     48 H19        21.7249    19.2150    59.3582 H          1           0.1219
     49 H20        23.5893    20.5519    58.6781 H          1           0.3709
     50 H21        25.3849    19.2251    59.6165 H          1           0.0568
     51 H22        25.4656    20.9329    60.1133 H          1           0.1203
     52 H23        24.2868    20.3833    62.2191 H          1           0.1348
     53 H24        25.7689    19.4112    62.0549 H          1           0.1327
     54 H25        24.7641    15.4011    63.0354 H          1           0.1223
     55 H26        23.4560    13.3292    63.1938 H          1           0.1394
@<TRIPOS>BOND
     1    1    2 1
     2    1   31 1
     3    1   32 1
     4    1   33 1
     5    2    3 1
     6    2   34 1
     7    2   35 1
     8    3    4 1
     9    4   13 ar
    10    4    5 ar
    11    5    6 ar
    12    5   36 1
    13    6    7 ar
    14    6   37 1
    15    7   12 ar
    16    7    8 ar
    17    8    9 ar
    18    8   38 1
    19    9   10 ar
    20    9   14 1
    21   10   11 ar
    22   10   39 1
    23   11   12 ar
    24   11   40 1
    25   12   13 ar
    26   13   41 1
    27   14   27 ar
    28   14   15 ar
    29   15   16 ar
    30   15   42 1
    31   16   17 1
    32   16   25 ar
    33   17   18 1
    34   17   43 1
    35   17   44 1
    36   18   19 1
    37   18   24 1
    38   18   20 1
    39   20   21 1
    40   20   45 1
    41   20   46 1
    42   21   22 1
    43   21   47 1
    44   21   48 1
    45   22   23 1
    46   22   49 1
    47   23   24 1
    48   23   50 1
    49   23   51 1
    50   24   52 1
    51   24   53 1
    52   25   26 ar
    53   25   54 1
    54   26   27 ar
    55   26   55 1
    56   27   28 1
    57   28   29 1
    58   28   30 2
##########                 Name:                 1530
##########          Protonation:                   78
##########               SMILES:   CCOc1ccc2cc(ccc2c1)c3cc(ccc3C(=O)[O-])CN4CC[NH2+]CC4
##########            Long Name:   2-(6-ethoxy-2-naphthyl)-4-(piperazin-4-ium-1-ylmethyl)benzoate
##########          FlexRecCode: 1
##########               Number:                  198
##########   Ligand Source File: /raid1/people/rgc/Examples/tdt/part3/ligand22set/build/ligand22set-0000001.db2.g
##########           GlobalRank: 20
##########                 Rank:                    1
##########               Setnum:                  172
##########             Matchnum:                 3557
##########                Cloud:                    1
##########        Electrostatic:           -29.971588
##########        Van der Waals:           -31.516434
##########  Ligand Polar Desolv:            38.530899
########## Ligand Apolar Desolv:            -5.375756
##########      Internal Energy:             0.000000
##########      Receptor Energy: 0.0
########## Receptor Desolvation:             0.000000
########## Receptor Hydrophobic:             0.000000
##########         Total Energy: -28.33
##########        Ligand Charge:             0.000000
##########            Arbitrary:    +999.9990
##########     heavy atom count:   29
##########           pose count:   10
##########        Ligand Energy:             0.000000
# num electro vdwattr vdwrepu polsolv apolsol rdesolv rhydroe totalscore fullpol fullapo
#   1   -0.92   -1.29    0.18    0.07   -0.14    0.00    0.00      -2.10    0.11   -0.21
#   2    0.49   -1.65    0.49   -0.05   -0.07    0.00    0.00      -0.79   -0.09   -0.11
#   3   -3.04   -1.89    0.66    1.52    0.56    0.00    0.00      -2.19    2.37    0.88
#   4    1.33   -3.62    6.45   -0.64   -0.19    0.00    0.00       3.33   -1.04   -0.31
#   5   -1.21   -4.43    5.25    1.01   -0.27    0.00    0.00       0.36    1.63   -0.43
#   6   -0.22   -4.07    3.47    0.70   -0.30    0.00    0.00      -0.42    1.08   -0.46
#   7   -0.87   -2.64    1.36    1.07   -0.25    0.00    0.00      -1.34    1.69   -0.40
#   8    0.10   -1.99    0.39    0.41   -0.18    0.00    0.00      -1.25    0.71   -0.30
#   9   -0.49   -1.68    0.23    0.48   -0.16    0.00    0.00      -1.63    0.88   -0.30
#  10   -1.01   -2.89    1.53    0.52   -0.25    0.00    0.00      -2.10    0.96   -0.45
#  11   -1.97   -4.03    2.89    0.67   -0.27    0.00    0.00      -2.70    1.14   -0.45
#  12   -0.08   -2.84    1.08    0.30   -0.24    0.00    0.00      -1.79    0.50   -0.40
#  13   -1.95   -3.30    2.01    0.97   -0.27    0.00    0.00      -2.54    1.63   -0.45
#  14   -0.08   -1.61    0.34    0.20   -0.19    0.00    0.00      -1.34    0.39   -0.37
#  15   -0.40   -1.75    0.44    0.09   -0.15    0.00    0.00      -1.78    0.20   -0.35
#  16    0.09   -1.48    0.23   -0.02   -0.14    0.00    0.00      -1.33   -0.06   -0.34
#  17   -0.48   -1.20    0.28    0.40   -0.16    0.00    0.00      -1.16    1.00   -0.39
#  18    4.87   -0.89    0.05   -2.60    1.10    0.00    0.00       2.54   -7.58    3.21
#  19   -0.17   -0.57    0.06   -0.02   -0.10    0.00    0.00      -0.80   -0.09   -0.39
#  20    0.04   -0.64    0.12    0.18   -0.13    0.00    0.00      -0.42    0.66   -0.48
#  21   12.48   -1.75    1.61   -4.46    0.30    0.00    0.00       8.19  -13.14    0.89
#  22   -8.48   -0.02    0.00    3.24    0.13    0.00    0.00      -5.12   14.12    0.57
#  23  -17.10   -0.20    0.13    5.01    0.19    0.00    0.00     -11.97   15.14    0.57
#  24    0.04   -1.07    0.21    0.26   -0.20    0.00    0.00      -0.76    0.62   -0.48
#  25   -0.30   -0.67    0.04    0.10   -0.17    0.00    0.00      -1.01    0.23   -0.42
#  26    0.15   -1.57    0.31    0.18   -0.19    0.00    0.00      -1.13    0.42   -0.45
#  27    0.00   -2.12    0.69    0.87   -0.23    0.00    0.00      -0.79    1.72   -0.46
#  28   -0.32   -1.91    0.66    2.38   -0.24    0.00    0.00       0.57    4.12   -0.41
#  29    1.69   -2.60    0.53   -8.96   -0.11    0.00    0.00      -9.45  -13.92   -0.17
#  30   -1.19   -3.85    1.96   17.93   -0.27    0.00    0.00      14.58   26.91   -0.41
#  31   -1.76   -3.50    1.44   14.80   -0.20    0.00    0.00      10.79   22.24   -0.30
#  32    0.19   -0.55    0.21   -0.02   -0.14    0.00    0.00      -0.31   -0.05   -0.28
#  33    0.42   -0.37    0.05   -0.05   -0.13    0.00    0.00      -0.06   -0.10   -0.28
#  34    0.44   -0.43    0.11    0.09   -0.15    0.00    0.00       0.06    0.17   -0.28
#  35    0.71   -0.73    0.65   -0.06   -0.13    0.00    0.00       0.42   -0.13   -0.27
#  36    0.48   -0.82    0.58   -0.11   -0.14    0.00    0.00      -0.01   -0.20   -0.27
#  37    0.29   -1.01    0.91   -0.51   -0.13    0.00    0.00      -0.45   -0.89   -0.22
#  38   -0.35   -1.04    1.36   -0.93   -0.17    0.00    0.00      -1.13   -1.53   -0.28
#  39    0.73   -0.54    0.28   -0.60   -0.12    0.00    0.00      -0.25   -1.35   -0.27
#  40    0.77   -0.62    0.35   -0.44   -0.13    0.00    0.00      -0.07   -0.96   -0.28
#  41    0.89   -1.51    2.51   -0.54   -0.18    0.00    0.00       1.16   -0.85   -0.28
#  42    0.81   -1.05    1.29   -0.61   -0.16    0.00    0.00       0.28   -1.09   -0.28
#  43    0.63   -0.49    0.24    0.15   -0.10    0.00    0.00       0.42    0.42   -0.28
#  44   -0.30   -0.51    0.10    0.43   -0.11    0.00    0.00      -0.39    1.02   -0.27
#  45   -0.30   -0.83    1.04    0.28   -0.09    0.00    0.00       0.11    0.89   -0.28
#  46   -0.47   -0.25    0.04    0.35   -0.06    0.00    0.00      -0.40    1.64   -0.28
#  47   -1.02   -0.19    0.05    0.04   -0.03    0.00    0.00      -1.15    0.25   -0.21
#  48   -1.51   -0.13    0.01    0.48   -0.03    0.00    0.00      -1.18    4.02   -0.28
#  49   -2.15   -0.25    0.05    0.49   -0.06    0.00    0.00      -1.92    2.27   -0.28
#  50   -3.64   -0.45    0.17    2.10   -0.11    0.00    0.00      -1.93    5.59   -0.28
#  51   -3.29   -0.45    0.13    1.11   -0.11    0.00    0.00      -2.61    2.85   -0.28
#  52   -1.13   -0.21    0.01    0.41   -0.07    0.00    0.00      -0.98    1.70   -0.28
#  53   -0.78   -0.31    0.05    0.54   -0.08    0.00    0.00      -0.59    1.88   -0.28
#  54   -0.32   -0.25    0.02   -0.01   -0.07    0.00    0.00      -0.62   -0.05   -0.28
#  55   -0.32   -0.75    0.65   -0.63   -0.12    0.00    0.00      -1.17   -1.35   -0.26

@<TRIPOS>MOLECULE
             1530        78
   55    58     0     0     0



@<TRIPOS>ATOM
      1 C1         11.0295    14.6768    64.3067 C.3        1          -0.1520
      2 C2         12.4100    15.2983    64.0860 C.3        1           0.0543
      3 O1         13.1760    15.1964    65.2880 O.3        1          -0.3198
      4 C3         14.5240    15.0936    65.1535 C.ar       1           0.1257
      5 C4         15.2609    14.3869    66.1092 C.ar       1          -0.2043
      6 C5         16.6109    14.2670    66.0015 C.ar       1          -0.0506
      7 C6         17.2798    14.8605    64.9151 C.ar       1          -0.0826
      8 C7         18.6717    14.7537    64.7762 C.ar       1           0.0113
      9 C8         19.2958    15.3500    63.6947 C.ar       1          -0.0484
     10 C9         18.5467    16.0585    62.7393 C.ar       1          -0.0795
     11 C10        17.1992    16.1727    62.8564 C.ar       1          -0.1405
     12 C11        16.5345    15.5778    63.9448 C.ar       1          -0.0058
     13 C12        15.1411    15.6776    64.0834 C.ar       1          -0.1596
     14 C13        20.7646    15.2413    63.5428 C.ar       1          -0.0158
     15 C14        21.5539    16.3883    63.5232 C.ar       1          -0.1223
     16 C15        22.9227    16.2825    63.3814 C.ar       1          -0.1123
     17 C16        23.7712    17.5277    63.3614 C.3        1           0.1072
     18 N1         23.9098    18.0035    61.9785 N.3        1          -0.5333
     19 C17        25.1205    18.8220    61.8218 C.3        1           0.0174
     20 C18        25.2594    19.2472    60.3586 C.3        1          -0.0029
     21 N2         24.0733    20.0148    59.9566 N.4        1          -0.5075
     22 H1         23.9839    20.8286    60.5464 H          1           0.4242
     23 H2         24.1707    20.3053    58.9953 H          1           0.4308
     24 C19        22.8753    19.1762    60.0952 C.3        1          -0.0016
     25 C20        22.7165    18.7505    61.5563 C.3        1           0.0229
     26 C21        23.5223    15.0393    63.2576 C.ar       1          -0.1102
     27 C22        22.7594    13.8911    63.2746 C.ar       1          -0.0851
     28 C23        21.3731    13.9770    63.4230 C.ar       1          -0.1078
     29 C24        20.5531    12.7542    63.4485 C.2        1           0.5099
     30 O2         20.3181    12.1975    64.5121 O.co2      1          -0.6813
     31 O3         20.1068    12.2952    62.4060 O.co2      1          -0.6590
     32 H3         10.4452    14.7546    63.3899 H          1           0.0646
     33 H4         11.1426    13.6271    64.5775 H          1           0.0662
     34 H5         10.5169    15.2060    65.1102 H          1           0.0767
     35 H6         12.9224    14.7693    63.2826 H          1           0.0593
     36 H7         12.2966    16.3482    63.8154 H          1           0.0614
     37 H8         14.7506    13.9304    66.9446 H          1           0.1246
     38 H9         17.1678    13.7187    66.7469 H          1           0.1271
     39 H10        19.2516    14.2108    65.5078 H          1           0.1161
     40 H11        19.0500    16.5181    61.9015 H          1           0.1126
     41 H12        16.6372    16.7203    62.1143 H          1           0.1201
     42 H13        14.5600    16.2166    63.3498 H          1           0.1281
     43 H14        21.0947    17.3612    63.6186 H          1           0.1113
     44 H15        23.2965    18.3007    63.9658 H          1           0.0920
     45 H16        24.7569    17.3024    63.7685 H          1           0.0507
     46 H17        25.0445    19.7080    62.4524 H          1           0.0593
     47 H18        25.9937    18.2397    62.1159 H          1           0.1326
     48 H19        26.1491    19.8663    60.2429 H          1           0.1373
     49 H20        25.3491    18.3613    59.7298 H          1           0.1401
     50 H21        21.9975    19.7426    59.7844 H          1           0.1350
     51 H22        22.9771    18.2907    59.4678 H          1           0.1389
     52 H23        21.8359    18.1160    61.6567 H          1           0.1217
     53 H24        22.6010    19.6352    62.1824 H          1           0.0579
     54 H25        24.5943    14.9695    63.1469 H          1           0.1148
     55 H26        23.2338    12.9257    63.1773 H          1           0.1303
@<TRIPOS>BOND
     1    1    2 1
     2    1   32 1
     3    1   33 1
     4    1   34 1
     5    2    3 1
     6    2   35 1
     7    2   36 1
     8    3    4 1
     9    4   13 ar
    10    4    5 ar
    11    5    6 ar
    12    5   37 1
    13    6    7 ar
    14    6   38 1
    15    7   12 ar
    16    7    8 ar
    17    8    9 ar
    18    8   39 1
    19    9   10 ar
    20    9   14 1
    21   10   11 ar
    22   10   40 1
    23   11   12 ar
    24   11   41 1
    25   12   13 ar
    26   13   42 1
    27   14   28 ar
    28   14   15 ar
    29   15   16 ar
    30   15   43 1
    31   16   17 1
    32   16   26 ar
    33   17   18 1
    34   17   44 1
    35   17   45 1
    36   18   25 1
    37   18   19 1
    38   19   20 1
    39   19   46 1
    40   19   47 1
    41   20   21 1
    42   20   48 1
    43   20   49 1
    44   21   22 1
    45   21   23 1
    46   21   24 1
    47   24   25 1
    48   24   50 1
    49   24   51 1
    50   25   52 1
    51   25   53 1
    52   26   27 ar
    53   26   54 1
    54   27   28 ar
    55   27   55 1
    56   28   29 1
    57   29   30 1
    58   29   31 2
##########                 Name:                 1530
##########          Protonation:                   78
##########               SMILES:   CCOc1ccc2cc(ccc2c1)c3cc(ccc3C(=O)[O-])CN4CC[NH2+]CC4
##########            Long Name:   2-(6-ethoxy-2-naphthyl)-4-(piperazin-4-ium-1-ylmethyl)benzoate
##########          FlexRecCode: 1
##########               Number:                  198
##########   Ligand Source File: /raid1/people/rgc/Examples/tdt/part3/ligand22set/build/ligand22set-0000001.db2.g
##########           GlobalRank: 21
##########                 Rank:                    2
##########               Setnum:                  275
##########             Matchnum:                21407
##########                Cloud:                    1
##########        Electrostatic:           -38.326038
##########        Van der Waals:           -25.338524
##########  Ligand Polar Desolv:            41.342911
########## Ligand Apolar Desolv:            -5.098480
##########      Internal Energy:             0.000000
##########      Receptor Energy: 0.0
########## Receptor Desolvation:             0.000000
########## Receptor Hydrophobic:             0.000000
##########         Total Energy: -27.42
##########        Ligand Charge:             0.000000
##########            Arbitrary:    +999.9990
##########     heavy atom count:   29
##########           pose count:   10
##########        Ligand Energy:             0.000000
# num electro vdwattr vdwrepu polsolv apolsol rdesolv rhydroe totalscore fullpol fullapo
#   1   -1.20   -1.50    0.42    0.07   -0.14    0.00    0.00      -2.35    0.11   -0.21
#   2    0.55   -1.45    0.33   -0.06   -0.07    0.00    0.00      -0.70   -0.09   -0.11
#   3   -3.81   -1.95    0.30    1.57    0.58    0.00    0.00      -3.31    2.37    0.88
#   4    1.65   -2.66    0.86   -0.67   -0.20    0.00    0.00      -1.02   -1.04   -0.31
#   5   -1.53   -3.58    1.69    1.08   -0.28    0.00    0.00      -2.62    1.63   -0.43
#   6   -0.35   -3.13    0.71    0.71   -0.30    0.00    0.00      -2.36    1.08   -0.46
#   7   -0.96   -2.18    0.38    1.05   -0.25    0.00    0.00      -1.96    1.69   -0.40
#   8    0.11   -2.70    1.88    0.39   -0.17    0.00    0.00      -0.49    0.71   -0.30
#   9   -0.45   -1.76    0.36    0.45   -0.15    0.00    0.00      -1.55    0.88   -0.30
#  10   -1.03   -2.43    1.12    0.50   -0.23    0.00    0.00      -2.08    0.96   -0.45
#  11   -2.38   -3.22    1.90    0.66   -0.26    0.00    0.00      -3.31    1.14   -0.45
#  12   -0.10   -2.34    0.56    0.30   -0.24    0.00    0.00      -1.82    0.50   -0.40
#  13   -2.68   -2.75    0.95    0.99   -0.27    0.00    0.00      -3.77    1.63   -0.45
#  14   -0.06   -1.63    0.39    0.18   -0.17    0.00    0.00      -1.30    0.39   -0.37
#  15   -0.05   -1.46    0.25    0.09   -0.15    0.00    0.00      -1.33    0.20   -0.35
#  16    0.34   -1.24    0.16   -0.02   -0.13    0.00    0.00      -0.90   -0.06   -0.34
#  17   -0.73   -0.75    0.11    0.33   -0.13    0.00    0.00      -1.18    1.00   -0.39
#  18    6.04   -0.87    0.04   -2.76    1.17    0.00    0.00       3.61   -7.58    3.21
#  19   -0.27   -1.03    0.28   -0.03   -0.14    0.00    0.00      -1.19   -0.09   -0.39
#  20    0.08   -1.96    0.91    0.30   -0.22    0.00    0.00      -0.89    0.66   -0.48
#  21   16.87   -4.16   11.65   -5.47    0.37    0.00    0.00      19.25  -13.14    0.89
#  22  -16.82   -0.20    0.14    4.70    0.19    0.00    0.00     -12.00   14.12    0.57
#  23  -16.66   -0.16    0.04    7.20    0.27    0.00    0.00      -9.32   15.14    0.57
#  24    0.04   -1.00    0.19    0.23   -0.18    0.00    0.00      -0.73    0.62   -0.48
#  25   -0.31   -0.65    0.05    0.07   -0.14    0.00    0.00      -0.96    0.23   -0.42
#  26    0.30   -1.41    0.23    0.17   -0.19    0.00    0.00      -0.89    0.42   -0.45
#  27    0.12   -2.14    0.66    0.84   -0.22    0.00    0.00      -0.75    1.72   -0.46
#  28   -0.25   -1.88    0.49    2.26   -0.23    0.00    0.00       0.39    4.12   -0.41
#  29    2.06   -2.57    0.57   -8.82   -0.11    0.00    0.00      -8.87  -13.92   -0.17
#  30   -3.13   -5.32   11.24   17.37   -0.26    0.00    0.00      19.91   26.91   -0.41
#  31   -2.00   -2.98    0.68   14.79   -0.20    0.00    0.00      10.29   22.24   -0.30
#  32    0.45   -0.32    0.03   -0.02   -0.14    0.00    0.00       0.00   -0.05   -0.28
#  33    0.50   -0.85    1.08   -0.05   -0.14    0.00    0.00       0.55   -0.10   -0.28
#  34    0.58   -0.65    0.47    0.09   -0.14    0.00    0.00       0.34    0.17   -0.28
#  35    0.60   -0.49    0.17   -0.06   -0.12    0.00    0.00       0.10   -0.13   -0.27
#  36    0.63   -0.84    1.32   -0.11   -0.15    0.00    0.00       0.85   -0.20   -0.27
#  37    0.29   -1.07    0.65   -0.56   -0.14    0.00    0.00      -0.82   -0.89   -0.22
#  38    0.49   -0.99    0.42   -0.98   -0.18    0.00    0.00      -1.24   -1.53   -0.28
#  39    0.89   -1.08    2.34   -0.63   -0.13    0.00    0.00       1.39   -1.35   -0.27
#  40    0.67   -0.50    0.18   -0.42   -0.12    0.00    0.00      -0.20   -0.96   -0.28
#  41    1.48   -0.99    0.81   -0.50   -0.17    0.00    0.00       0.63   -0.85   -0.28
#  42    1.74   -0.72    0.41   -0.59   -0.15    0.00    0.00       0.70   -1.09   -0.28
#  43    0.05   -0.30    0.05    0.13   -0.09    0.00    0.00      -0.16    0.42   -0.28
#  44   -0.63   -0.58    0.43    0.31   -0.08    0.00    0.00      -0.55    1.02   -0.27
#  45   -0.36   -0.16    0.01    0.12   -0.04    0.00    0.00      -0.42    0.89   -0.28
#  46   -0.89   -0.27    0.04    0.44   -0.08    0.00    0.00      -0.74    1.64   -0.28
#  47   -1.55   -0.63    0.66    0.08   -0.07    0.00    0.00      -1.50    0.25   -0.21
#  48   -4.44   -1.40    2.03    2.21   -0.15    0.00    0.00      -1.75    4.02   -0.28
#  49   -3.29   -0.41    0.08    0.91   -0.11    0.00    0.00      -2.82    2.27   -0.28
#  50   -2.76   -0.28    0.05    1.48   -0.07    0.00    0.00      -1.58    5.59   -0.28
#  51   -3.22   -0.38    0.09    0.95   -0.09    0.00    0.00      -2.64    2.85   -0.28
#  52   -1.21   -0.37    0.08    0.46   -0.08    0.00    0.00      -1.12    1.70   -0.28
#  53   -0.67   -0.12    0.00    0.23   -0.03    0.00    0.00      -0.59    1.88   -0.28
#  54   -0.44   -0.20    0.01   -0.01   -0.07    0.00    0.00      -0.71   -0.05   -0.28
#  55   -0.61   -0.87    1.25   -0.61   -0.12    0.00    0.00      -0.96   -1.35   -0.26

@<TRIPOS>MOLECULE
             1530        78
   55    58     0     0     0



@<TRIPOS>ATOM
      1 C1         12.1395    14.6511    65.4612 C.3        1          -0.1520
      2 C2         13.1309    15.7869    65.2011 C.3        1           0.0543
      3 O1         14.0566    15.8692    66.2867 O.3        1          -0.3198
      4 C3         15.3715    15.6991    65.9902 C.ar       1           0.1257
      5 C4         16.2282    15.1445    66.9464 C.ar       1          -0.2043
      6 C5         17.5487    14.9621    66.6788 C.ar       1          -0.0506
      7 C6         18.0646    15.3351    65.4240 C.ar       1          -0.0826
      8 C7         19.4222    15.1588    65.1181 C.ar       1           0.0113
      9 C8         19.8945    15.5370    63.8736 C.ar       1          -0.0484
     10 C9         19.0258    16.0939    62.9191 C.ar       1          -0.0795
     11 C10        17.7091    16.2722    63.1964 C.ar       1          -0.1405
     12 C11        17.1976    15.8980    64.4529 C.ar       1          -0.0058
     13 C12        15.8382    16.0673    64.7600 C.ar       1          -0.1596
     14 C13        21.3265    15.3540    63.5449 C.ar       1          -0.0158
     15 C14        22.1160    16.4528    63.2159 C.ar       1          -0.1223
     16 C15        23.4505    16.2778    62.9102 C.ar       1          -0.1123
     17 C16        24.2994    17.4712    62.5554 C.3        1           0.1072
     18 N1         23.5683    18.3297    61.6137 N.3        1          -0.5333
     19 C17        23.5781    17.7553    60.2609 C.3        1           0.0174
     20 C18        22.7579    18.6464    59.3257 C.3        1          -0.0029
     21 N2         23.3338    19.9976    59.3066 N.4        1          -0.5075
     22 H1         24.2904    19.9508    58.9892 H          1           0.4242
     23 H2         22.8002    20.5817    58.6806 H          1           0.4308
     24 C19        23.2947    20.5673    60.6600 C.3        1          -0.0016
     25 C20        24.1193    19.6922    61.6063 C.3        1           0.0229
     26 C21        24.0152    15.0124    62.9274 C.ar       1          -0.1102
     27 C22        23.2515    13.9111    63.2504 C.ar       1          -0.0851
     28 C23        21.9004    14.0682    63.5686 C.ar       1          -0.1078
     29 C24        21.0806    12.8968    63.9208 C.2        1           0.5099
     30 O2         20.9915    12.5414    65.0879 O.co2      1          -0.6813
     31 O3         20.4886    12.2792    63.0463 O.co2      1          -0.6590
     32 H3         11.4335    14.5882    64.6332 H          1           0.0646
     33 H4         12.6809    13.7091    65.5492 H          1           0.0662
     34 H5         11.5977    14.8465    66.3867 H          1           0.0767
     35 H6         13.6727    15.5916    64.2757 H          1           0.0593
     36 H7         12.5894    16.7288    65.1132 H          1           0.0614
     37 H8         15.8355    14.8573    67.9107 H          1           0.1246
     38 H9         18.1992    14.5329    67.4266 H          1           0.1271
     39 H10        20.0937    14.7318    65.8482 H          1           0.1161
     40 H11        19.4112    16.3839    61.9528 H          1           0.1126
     41 H12        17.0539    16.7014    62.4529 H          1           0.1201
     42 H13        15.1654    16.4902    64.0287 H          1           0.1281
     43 H14        21.6838    17.4424    63.1997 H          1           0.1113
     44 H15        24.5284    18.0359    63.4592 H          1           0.0920
     45 H16        25.2270    17.1329    62.0936 H          1           0.0507
     46 H17        24.6044    17.6952    59.8987 H          1           0.0593
     47 H18        23.1421    16.7566    60.2866 H          1           0.1326
     48 H19        22.7757    18.2298    58.3185 H          1           0.1373
     49 H20        21.7285    18.6952    59.6806 H          1           0.1401
     50 H21        23.7104    21.5749    60.6421 H          1           0.1350
     51 H22        22.2624    20.6064    61.0079 H          1           0.1389
     52 H23        24.0781    20.1066    62.6136 H          1           0.1217
     53 H24        25.1545    19.6639    61.2662 H          1           0.0579
     54 H25        25.0605    14.8882    62.6859 H          1           0.1148
     55 H26        23.6985    12.9279    63.2614 H          1           0.1303
@<TRIPOS>BOND
     1    1    2 1
     2    1   32 1
     3    1   33 1
     4    1   34 1
     5    2    3 1
     6    2   35 1
     7    2   36 1
     8    3    4 1
     9    4   13 ar
    10    4    5 ar
    11    5    6 ar
    12    5   37 1
    13    6    7 ar
    14    6   38 1
    15    7   12 ar
    16    7    8 ar
    17    8    9 ar
    18    8   39 1
    19    9   10 ar
    20    9   14 1
    21   10   11 ar
    22   10   40 1
    23   11   12 ar
    24   11   41 1
    25   12   13 ar
    26   13   42 1
    27   14   28 ar
    28   14   15 ar
    29   15   16 ar
    30   15   43 1
    31   16   17 1
    32   16   26 ar
    33   17   18 1
    34   17   44 1
    35   17   45 1
    36   18   25 1
    37   18   19 1
    38   19   20 1
    39   19   46 1
    40   19   47 1
    41   20   21 1
    42   20   48 1
    43   20   49 1
    44   21   22 1
    45   21   23 1
    46   21   24 1
    47   24   25 1
    48   24   50 1
    49   24   51 1
    50   25   52 1
    51   25   53 1
    52   26   27 ar
    53   26   54 1
    54   27   28 ar
    55   27   55 1
    56   28   29 1
    57   29   30 1
    58   29   31 2
##########                 Name:                 1530
##########          Protonation:                   20
##########               SMILES:   CCOc1ccc2cc(ccc2c1)c3cc(ccc3C(=O)[O-])C[NH+]4CCNCC4
##########            Long Name:   2-(6-ethoxy-2-naphthyl)-4-(piperazin-1-ium-1-ylmethyl)benzoate
##########          FlexRecCode: 1
##########               Number:                   46
##########   Ligand Source File: /raid1/people/rgc/Examples/tdt/part3/ligand22set/build/ligand22set-0000001.db2.g
##########           GlobalRank: 21
##########                 Rank:                    3
##########               Setnum:                   40
##########             Matchnum:                22447
##########                Cloud:                    1
##########        Electrostatic:           -19.313560
##########        Van der Waals:           -33.476913
##########  Ligand Polar Desolv:            33.685078
########## Ligand Apolar Desolv:            -5.810057
##########      Internal Energy:             0.000000
##########      Receptor Energy: 0.0
########## Receptor Desolvation:             0.000000
########## Receptor Hydrophobic:             0.000000
##########         Total Energy: -24.92
##########        Ligand Charge:             0.000000
##########            Arbitrary:    +999.9990
##########     heavy atom count:   29
##########           pose count:   10
##########        Ligand Energy:             0.000000
# num electro vdwattr vdwrepu polsolv apolsol rdesolv rhydroe totalscore fullpol fullapo
#   1   -1.00   -1.28    0.18    0.10   -0.13    0.00    0.00      -2.13    0.16   -0.20
#   2    0.49   -1.61    0.46   -0.07   -0.07    0.00    0.00      -0.80   -0.12   -0.11
#   3   -3.18   -1.75    0.34    1.61    0.57    0.00    0.00      -2.40    2.47    0.88
#   4    1.50   -2.67    1.61   -0.63   -0.20    0.00    0.00      -0.39   -1.00   -0.31
#   5   -1.39   -3.19    1.31    1.10   -0.27    0.00    0.00      -2.44    1.74   -0.43
#   6   -0.31   -2.94    0.86    0.71   -0.30    0.00    0.00      -1.98    1.09   -0.46
#   7   -1.03   -2.14    0.40    1.01   -0.25    0.00    0.00      -2.01    1.60   -0.40
#   8    0.18   -2.16    0.60    0.40   -0.17    0.00    0.00      -1.16    0.69   -0.30
#   9   -0.77   -1.94    0.48    0.33   -0.16    0.00    0.00      -2.06    0.62   -0.30
#  10   -1.34   -3.49    4.50    0.31   -0.24    0.00    0.00      -0.27    0.57   -0.45
#  11   -2.36   -3.95    2.91    0.56   -0.26    0.00    0.00      -3.11    0.95   -0.45
#  12   -0.03   -2.60    0.70    0.28   -0.24    0.00    0.00      -1.89    0.48   -0.40
#  13   -2.22   -2.97    1.14    0.94   -0.27    0.00    0.00      -3.39    1.58   -0.45
#  14   -0.04   -1.83    0.54    0.14   -0.17    0.00    0.00      -1.37    0.30   -0.37
#  15   -0.31   -2.21    0.97   -0.20   -0.20    0.00    0.00      -1.94   -0.44   -0.43
#  16    0.23   -1.71    0.32   -0.45   -0.14    0.00    0.00      -1.75   -1.05   -0.33
#  17   -0.28   -1.57    0.53    0.67   -0.15    0.00    0.00      -0.80    1.61   -0.36
#  18    3.82   -0.80    0.06   -2.89    0.10    0.00    0.00       0.28   -8.38    0.28
#  19   -4.90   -0.01    0.00    1.65    0.09    0.00    0.00      -3.18   10.14    0.54
#  20    0.10   -0.87    0.14   -0.01   -0.12    0.00    0.00      -0.76   -0.03   -0.36
#  21   -0.55   -0.73    0.13    0.14   -0.16    0.00    0.00      -1.17    0.45   -0.51
#  22   12.02   -1.48    0.94   -2.85    0.75    0.00    0.00       9.38  -10.89    2.86
#  23   -0.44   -0.84    0.19    0.10   -0.16    0.00    0.00      -1.14    0.34   -0.51
#  24    0.03   -0.49    0.03    0.09   -0.11    0.00    0.00      -0.44    0.32   -0.39
#  25    0.14   -1.69    0.42   -0.18   -0.15    0.00    0.00      -1.46   -0.44   -0.36
#  26   -0.02   -1.85    0.47    0.42   -0.22    0.00    0.00      -1.19    0.88   -0.46
#  27   -0.26   -1.73    0.39    1.42   -0.22    0.00    0.00      -0.39    2.66   -0.41
#  28    1.91   -2.10    0.36   -7.45   -0.10    0.00    0.00      -7.38  -12.03   -0.16
#  29   -2.53   -3.73    4.26   15.87   -0.26    0.00    0.00      13.61   24.59   -0.40
#  30   -1.93   -2.57    0.73   13.38   -0.19    0.00    0.00       9.42   20.66   -0.30
#  31    0.28   -0.45    0.09   -0.05   -0.13    0.00    0.00      -0.27   -0.11   -0.28
#  32    0.53   -0.39    0.07    0.07   -0.13    0.00    0.00       0.15    0.15   -0.28
#  33    0.41   -0.47    0.16   -0.04   -0.15    0.00    0.00      -0.09   -0.07   -0.28
#  34    0.68   -0.70    0.66   -0.08   -0.12    0.00    0.00       0.44   -0.16   -0.26
#  35    0.49   -0.90    0.96   -0.12   -0.14    0.00    0.00       0.30   -0.22   -0.27
#  36    0.32   -0.77    0.26   -0.54   -0.13    0.00    0.00      -0.86   -0.93   -0.22
#  37    0.10   -0.73    0.20   -0.92   -0.17    0.00    0.00      -1.52   -1.49   -0.28
#  38    0.91   -0.66    0.50   -0.57   -0.12    0.00    0.00       0.06   -1.24   -0.27
#  39    1.02   -0.69    0.70   -0.10   -0.12    0.00    0.00       0.81   -0.24   -0.28
#  40    1.12   -1.28    1.25   -0.33   -0.18    0.00    0.00       0.59   -0.53   -0.28
#  41    0.88   -1.10    1.84   -0.58   -0.16    0.00    0.00       0.87   -1.03   -0.28
#  42    0.54   -0.71    0.69    0.99   -0.11    0.00    0.00       1.39    2.44   -0.28
#  43   -0.50   -0.72    0.25    2.19   -0.13    0.00    0.00       1.09    4.73   -0.28
#  44   -1.06   -1.52    4.91    1.97   -0.10    0.00    0.00       4.19    5.37   -0.28
#  45   -1.96   -0.71    0.72    0.51   -0.06    0.00    0.00      -1.51    1.67   -0.21
#  46   -0.88   -0.28    0.06    0.81   -0.07    0.00    0.00      -0.36    3.43   -0.28
#  47   -1.44   -0.32    0.08    0.20   -0.08    0.00    0.00      -1.57    0.69   -0.28
#  48   -1.81   -0.17    0.01    0.21   -0.05    0.00    0.00      -1.82    1.10   -0.28
#  49   -9.45   -0.09    0.02    1.23    0.15    0.00    0.00      -8.14    4.77    0.58
#  50   -1.18   -0.44    0.17    0.35   -0.09    0.00    0.00      -1.19    1.09   -0.28
#  51   -1.25   -0.24    0.03    0.50   -0.07    0.00    0.00      -1.03    2.08   -0.28
#  52   -1.01   -0.16    0.03    0.50   -0.04    0.00    0.00      -0.68    3.82   -0.28
#  53   -0.98   -0.14    0.01    0.76   -0.04    0.00    0.00      -0.39    5.17   -0.28
#  54   -0.34   -0.29    0.05    0.62   -0.07    0.00    0.00      -0.02    2.53   -0.28
#  55   -0.24   -0.44    0.11   -0.38   -0.11    0.00    0.00      -1.04   -0.93   -0.26

@<TRIPOS>MOLECULE
             1530        20
   55    58     0     0     0



@<TRIPOS>ATOM
      1 C1         11.2214    14.7892    64.5616 C.3        1          -0.1522
      2 C2         12.5730    15.4639    64.3191 C.3        1           0.0538
      3 O1         13.3426    15.4350    65.5227 O.3        1          -0.3187
      4 C3         14.6939    15.3879    65.3898 C.ar       1           0.1304
      5 C4         15.4614    14.7458    66.3668 C.ar       1          -0.2024
      6 C5         16.8154    14.6825    66.2610 C.ar       1          -0.0501
      7 C6         17.4574    15.2697    65.1551 C.ar       1          -0.0840
      8 C7         18.8526    15.2203    65.0178 C.ar       1           0.0165
      9 C8         19.4496    15.8084    63.9167 C.ar       1          -0.0627
     10 C9         18.6700    16.4516    62.9399 C.ar       1          -0.0796
     11 C10        17.3187    16.5097    63.0552 C.ar       1          -0.1372
     12 C11        16.6810    15.9213    64.1632 C.ar       1          -0.0021
     13 C12        15.2844    15.9636    64.3005 C.ar       1          -0.1612
     14 C13        20.9219    15.7601    63.7662 C.ar       1          -0.0075
     15 C14        21.6594    16.9398    63.7085 C.ar       1          -0.0995
     16 C15        23.0315    16.8904    63.5684 C.ar       1          -0.1780
     17 C16        23.8240    18.1707    63.5069 C.3        1           0.0529
     18 N1         23.9414    18.6073    62.1093 N.4        1          -0.3846
     19 H1         23.0659    18.4493    61.6331 H          1           0.4198
     20 C17        24.2687    20.0386    62.0696 C.3        1          -0.0085
     21 C18        24.3727    20.4980    60.6135 C.3        1           0.0305
     22 N2         25.4160    19.7202    59.9307 N.3        1          -0.6900
     23 C19        25.1143    18.2827    59.9840 C.3        1           0.0296
     24 C20        25.0046    17.8417    61.4451 C.3        1          -0.0036
     25 C21        23.6858    15.6716    63.4840 C.ar       1          -0.1144
     26 C22        22.9747    14.4919    63.5391 C.ar       1          -0.0831
     27 C23        21.5859    14.5209    63.6866 C.ar       1          -0.0834
     28 C24        20.8210    13.2644    63.7526 C.2        1           0.5061
     29 O2         20.6107    12.7324    64.8341 O.co2      1          -0.6738
     30 O3         20.3957    12.7525    62.7262 O.co2      1          -0.6495
     31 H2         10.6343    14.8113    63.6435 H          1           0.0664
     32 H3         11.3811    13.7548    64.8658 H          1           0.0774
     33 H4         10.6858    15.3208    65.3482 H          1           0.0652
     34 H5         13.1086    14.9323    63.5324 H          1           0.0602
     35 H6         12.4133    16.4984    64.0147 H          1           0.0619
     36 H7         14.9719    14.2945    67.2171 H          1           0.1263
     37 H8         17.3960    14.1839    67.0231 H          1           0.1282
     38 H9         19.4560    14.7276    65.7657 H          1           0.1168
     39 H10        19.1522    16.9057    62.0869 H          1           0.1133
     40 H11        16.7329    17.0074    62.2966 H          1           0.1223
     41 H12        14.6801    16.4523    63.5506 H          1           0.1298
     42 H13        21.1575    17.8939    63.7731 H          1           0.1244
     43 H14        23.3153    18.9410    64.0867 H          1           0.1313
     44 H15        24.8186    18.0025    63.9199 H          1           0.1320
     45 H16        23.4857    20.6046    62.5742 H          1           0.1402
     46 H17        25.2208    20.2077    62.5727 H          1           0.1341
     47 H18        23.4167    20.3419    60.1138 H          1           0.0577
     48 H19        24.6303    21.5569    60.5838 H          1           0.1219
     49 H20        25.5326    20.0301    58.9775 H          1           0.3709
     50 H21        24.1707    18.0899    59.4738 H          1           0.0568
     51 H22        25.9132    17.7250    59.4948 H          1           0.1203
     52 H23        25.9528    18.0222    61.9517 H          1           0.1348
     53 H24        24.7671    16.7788    61.4869 H          1           0.1327
     54 H25        24.7600    15.6459    63.3740 H          1           0.1223
     55 H26        23.4915    13.5459    63.4723 H          1           0.1394
@<TRIPOS>BOND
     1    1    2 1
     2    1   31 1
     3    1   32 1
     4    1   33 1
     5    2    3 1
     6    2   34 1
     7    2   35 1
     8    3    4 1
     9    4   13 ar
    10    4    5 ar
    11    5    6 ar
    12    5   36 1
    13    6    7 ar
    14    6   37 1
    15    7   12 ar
    16    7    8 ar
    17    8    9 ar
    18    8   38 1
    19    9   10 ar
    20    9   14 1
    21   10   11 ar
    22   10   39 1
    23   11   12 ar
    24   11   40 1
    25   12   13 ar
    26   13   41 1
    27   14   27 ar
    28   14   15 ar
    29   15   16 ar
    30   15   42 1
    31   16   17 1
    32   16   25 ar
    33   17   18 1
    34   17   43 1
    35   17   44 1
    36   18   19 1
    37   18   24 1
    38   18   20 1
    39   20   21 1
    40   20   45 1
    41   20   46 1
    42   21   22 1
    43   21   47 1
    44   21   48 1
    45   22   23 1
    46   22   49 1
    47   23   24 1
    48   23   50 1
    49   23   51 1
    50   24   52 1
    51   24   53 1
    52   25   26 ar
    53   25   54 1
    54   26   27 ar
    55   26   55 1
    56   27   28 1
    57   28   29 1
    58   28   30 2
##########                 Name:                 1569
##########          Protonation:                  100
##########               SMILES:   CC(C)Oc1ccc2cc(cnc2c1)c3c(c(n(n3)C(C)(C)C)N)C(=O)N
##########            Long Name:   5-amino-1-tert-butyl-3-(7-isopropoxy-3-quinolyl)pyrazole-4-carboxamide
##########          FlexRecCode: 1
##########               Number:                  193
##########   Ligand Source File: /raid1/people/rgc/Examples/tdt/part3/ligand22set/build/ligand22set-0000001.db2.g
##########           GlobalRank: 21
##########                 Rank:                    1
##########               Setnum:                  100
##########             Matchnum:                 2783
##########                Cloud:                    1
##########        Electrostatic:            -6.773991
##########        Van der Waals:           -27.017651
##########  Ligand Polar Desolv:             8.437476
########## Ligand Apolar Desolv:            -2.179006
##########      Internal Energy:             0.000000
##########      Receptor Energy: 0.0
########## Receptor Desolvation:             0.000000
########## Receptor Hydrophobic:             0.000000
##########         Total Energy: -27.53
##########        Ligand Charge:             0.000000
##########            Arbitrary:    +999.9990
##########     heavy atom count:   27
##########           pose count:   10
##########        Ligand Energy:             0.000000
# num electro vdwattr vdwrepu polsolv apolsol rdesolv rhydroe totalscore fullpol fullapo
#   1   -1.19   -2.32    1.98   -0.24   -0.11    0.00    0.00      -1.89   -0.38   -0.18
#   2    0.50   -1.28    0.19    0.04   -0.08    0.00    0.00      -0.64    0.06   -0.13
#   3   -0.49   -2.15    1.21   -0.15   -0.12    0.00    0.00      -1.70   -0.24   -0.19
#   4   -2.60   -2.08    0.58    0.78    0.58    0.00    0.00      -2.74    1.16    0.86
#   5    1.62   -2.17    0.47   -0.40   -0.20    0.00    0.00      -0.68   -0.61   -0.31
#   6   -1.97   -2.68    0.67   -0.04   -0.25    0.00    0.00      -4.27   -0.06   -0.38
#   7   -0.52   -3.01    1.27   -0.03   -0.30    0.00    0.00      -2.58   -0.04   -0.46
#   8   -1.99   -2.48    0.67    0.34   -0.26    0.00    0.00      -3.71    0.53   -0.40
#   9   -0.13   -2.20    0.39   -0.03   -0.28    0.00    0.00      -2.24   -0.04   -0.45
#  10   -1.42   -2.18    0.52    0.34   -0.23    0.00    0.00      -2.98    0.58   -0.40
#  11    2.33   -4.01    2.97   -0.80   -0.54    0.00    0.00      -0.05   -1.35   -0.91
#  12   -4.89   -5.01    3.59    3.15    1.21    0.00    0.00      -1.94    5.14    1.98
#  13    2.26   -3.11    1.32   -0.63   -0.44    0.00    0.00      -0.61   -1.06   -0.73
#  14   -1.50   -3.03    1.32    0.86   -0.29    0.00    0.00      -2.64    1.41   -0.47
#  15    2.22   -1.94    0.49   -0.43   -0.40    0.00    0.00      -0.06   -0.83   -0.77
#  16   -3.31   -2.81    2.20    0.55    0.50    0.00    0.00      -2.85    1.19    1.08
#  17   -1.03   -1.61    0.30    0.22    0.41    0.00    0.00      -1.72    0.49    0.94
#  18    1.43   -1.77    0.45   -0.30   -0.94    0.00    0.00      -1.12   -0.62   -1.98
#  19   -1.27   -2.22    0.89   -0.99    0.41    0.00    0.00      -3.17   -2.00    0.83
#  20   -2.25   -1.75    0.37    0.98   -0.24    0.00    0.00      -2.88    1.73   -0.42
#  21    2.60   -2.75    1.83   -1.90   -0.33    0.00    0.00      -0.54   -3.09   -0.53
#  22   -2.42   -4.03    3.14    0.29    1.17    0.00    0.00      -1.86    0.49    1.96
#  23   -2.28   -4.13    4.87    3.98    0.27    0.00    0.00       2.69    6.12    0.41
#  24   -0.58   -0.82    0.07    0.15   -0.05    0.00    0.00      -1.22    0.37   -0.12
#  25    1.11   -0.98    0.12   -0.11   -0.07    0.00    0.00       0.08   -0.25   -0.16
#  26    0.33   -2.24    1.22   -0.34   -0.08    0.00    0.00      -1.10   -0.77   -0.17
#  27    1.08   -0.83    0.25   -0.18   -0.06    0.00    0.00       0.26   -0.54   -0.17
#  28    0.52   -1.12    1.67    0.27   -0.15    0.00    0.00       1.18    0.49   -0.28
#  29    0.39   -1.01    1.45    0.08   -0.14    0.00    0.00       0.76    0.13   -0.24
#  30    0.42   -0.63    0.26    0.01   -0.15    0.00    0.00      -0.09    0.02   -0.28
#  31    0.60   -0.38    0.08    0.15   -0.10    0.00    0.00       0.34    0.33   -0.23
#  32    0.20   -1.28    1.75    0.01   -0.17    0.00    0.00       0.51    0.01   -0.28
#  33    0.00   -0.85    0.99    0.02   -0.15    0.00    0.00       0.01    0.04   -0.28
#  34    0.34   -0.66    0.55    0.26   -0.15    0.00    0.00       0.34    0.49   -0.28
#  35    1.21   -1.05    1.71    0.43   -0.11    0.00    0.00       2.19    0.73   -0.18
#  36    1.00   -0.88    0.61    0.60   -0.16    0.00    0.00       1.17    1.03   -0.28
#  37    1.62   -0.46    0.07    0.06   -0.14    0.00    0.00       1.14    0.12   -0.28
#  38    1.48   -1.74    7.21   -0.82   -0.12    0.00    0.00       6.01   -1.45   -0.21
#  39    1.14   -0.91    0.56   -0.57   -0.15    0.00    0.00       0.07   -1.06   -0.28
#  40   -0.15   -0.03    0.00    0.69    0.10    0.00    0.00       0.61    2.18    0.32
#  41    1.00   -0.04    0.00    0.57    0.27    0.00    0.00       1.80    1.20    0.58
#  42    2.44   -0.05    0.00    0.38    0.25    0.00    0.00       3.03    0.89    0.59
#  43   -0.82   -0.10    0.01    0.10    0.36    0.00    0.00      -0.45    0.17    0.60
#  44   -0.83   -0.23    0.02    0.01   -0.07    0.00    0.00      -1.10    0.05   -0.28
#  45   -0.75   -0.24    0.03    0.14   -0.07    0.00    0.00      -0.90    0.53   -0.28
#  46   -0.39   -0.60    0.21   -0.01   -0.12    0.00    0.00      -0.91   -0.03   -0.28
#  47   -0.40   -0.92    1.20    0.16   -0.07    0.00    0.00      -0.03    0.43   -0.20
#  48    0.04   -1.09    0.65    0.46   -0.15    0.00    0.00      -0.09    0.87   -0.28
#  49    0.02   -0.96    1.53    0.07   -0.11    0.00    0.00       0.56    0.19   -0.28
#  50   -0.62   -0.15    0.01    0.00   -0.04    0.00    0.00      -0.80    0.00   -0.28
#  51   -0.38   -0.24    0.06    0.17   -0.06    0.00    0.00      -0.45    0.76   -0.28
#  52   -0.50   -0.60    0.82    0.08   -0.06    0.00    0.00      -0.26    0.29   -0.20

@<TRIPOS>MOLECULE
             1569       100
   52    54     0     0     0



@<TRIPOS>ATOM
      1 C1         11.0251    13.4848    65.5888 C.3        1          -0.1829
      2 C2         11.2188    14.7555    64.7588 C.3        1           0.0750
      3 C3          9.8528    15.3198    64.3638 C.3        1          -0.1503
      4 O1         11.9295    15.7251    65.5314 O.3        1          -0.3051
      5 C4         13.2850    15.7092    65.4449 C.ar       1           0.1555
      6 C5         14.0484    15.4927    66.5971 C.ar       1          -0.1937
      7 C6         15.4066    15.4725    66.5383 C.ar       1          -0.0482
      8 C7         16.0566    15.6703    65.3076 C.ar       1          -0.1370
      9 C8         17.4587    15.6542    65.2163 C.ar       1          -0.0088
     10 C9         18.0332    15.8562    63.9691 C.ar       1          -0.0890
     11 C10        17.2079    16.0675    62.8531 C.ar       1           0.1714
     12 N1         15.9033    16.0795    62.9589 N.ar       1          -0.4748
     13 C11        15.2918    15.8902    64.1339 C.ar       1           0.1724
     14 C12        13.8904    15.9007    64.2241 C.ar       1          -0.1471
     15 C13        19.5077    15.8495    63.8165 C.2        1           0.1819
     16 N2         20.2505    16.8390    63.3794 N.2        1          -0.2771
     17 N3         21.5920    16.4481    63.3801 N.pl3      1          -0.3790
     18 C14        21.6957    15.1817    63.8286 C.2        1           0.4181
     19 N4         22.8630    14.4593    63.9686 N.pl3      1          -0.8439
     20 C15        20.4116    14.7369    64.1318 C.2        1          -0.3646
     21 C16        20.0372    13.4204    64.6573 C.2        1           0.6095
     22 N5         18.7425    13.1348    64.8995 N.am       1          -0.8476
     23 O2         20.8955    12.5856    64.8751 O.2        1          -0.5384
     24 C17        22.7155    17.2877    62.9567 C.3        1           0.1780
     25 C18        22.1918    18.6555    62.5148 C.3        1          -0.1406
     26 C19        23.6872    17.4665    64.1250 C.3        1          -0.1653
     27 C20        23.4409    16.6175    61.7882 C.3        1          -0.1672
     28 H1         11.9983    13.0827    65.8702 H          1           0.0741
     29 H2         10.4559    13.7214    66.4877 H          1           0.0632
     30 H3         10.4830    12.7453    64.9996 H          1           0.0698
     31 H4         11.7880    14.5190    63.8598 H          1           0.0754
     32 H5          9.9908    16.2252    63.7725 H          1           0.0688
     33 H6          9.3107    14.5802    63.7745 H          1           0.0663
     34 H7          9.2835    15.5563    65.2626 H          1           0.0786
     35 H8         13.5529    15.3403    67.5446 H          1           0.1378
     36 H9         15.9847    15.3051    67.4351 H          1           0.1364
     37 H10        18.0711    15.4898    66.0905 H          1           0.1445
     38 H11        17.6600    16.2244    61.8849 H          1           0.1672
     39 H12        13.2909    16.0622    63.3405 H          1           0.1445
     40 H13        23.7137    14.8619    63.7336 H          1           0.4040
     41 H14        22.8329    13.5489    64.3021 H          1           0.4174
     42 H15        18.0584    13.8002    64.7260 H          1           0.4014
     43 H16        18.4948    12.2638    65.2470 H          1           0.4016
     44 H17        23.0277    19.2802    62.1998 H          1           0.0703
     45 H18        21.4996    18.5282    61.6824 H          1           0.0737
     46 H19        21.6749    19.1329    63.3474 H          1           0.0710
     47 H20        24.5230    18.0911    63.8100 H          1           0.0608
     48 H21        23.1704    17.9441    64.9575 H          1           0.0847
     49 H22        24.0601    16.4920    64.4398 H          1           0.0701
     50 H23        24.2768    17.2422    61.4730 H          1           0.0710
     51 H24        23.8141    15.6430    62.1030 H          1           0.0847
     52 H25        22.7488    16.4898    60.9558 H          1           0.0611
@<TRIPOS>BOND
     1    1    2 1
     2    1   28 1
     3    1   29 1
     4    1   30 1
     5    2    3 1
     6    2    4 1
     7    2   31 1
     8    3   32 1
     9    3   33 1
    10    3   34 1
    11    4    5 1
    12    5   14 ar
    13    5    6 ar
    14    6    7 ar
    15    6   35 1
    16    7    8 ar
    17    7   36 1
    18    8   13 ar
    19    8    9 ar
    20    9   10 ar
    21    9   37 1
    22   10   11 ar
    23   10   15 1
    24   11   12 ar
    25   11   38 1
    26   12   13 ar
    27   13   14 ar
    28   14   39 1
    29   15   20 1
    30   15   16 2
    31   16   17 1
    32   17   18 1
    33   17   24 1
    34   18   19 1
    35   18   20 2
    36   19   40 1
    37   19   41 1
    38   20   21 1
    39   21   22 am
    40   21   23 2
    41   22   42 1
    42   22   43 1
    43   24   25 1
    44   24   26 1
    45   24   27 1
    46   25   44 1
    47   25   45 1
    48   25   46 1
    49   26   47 1
    50   26   48 1
    51   26   49 1
    52   27   50 1
    53   27   51 1
    54   27   52 1
##########                 Name:                 1569
##########          Protonation:                  100
##########               SMILES:   CC(C)Oc1ccc2cc(cnc2c1)c3c(c(n(n3)C(C)(C)C)N)C(=O)N
##########            Long Name:   5-amino-1-tert-butyl-3-(7-isopropoxy-3-quinolyl)pyrazole-4-carboxamide
##########          FlexRecCode: 1
##########               Number:                  193
##########   Ligand Source File: /raid1/people/rgc/Examples/tdt/part3/ligand22set/build/ligand22set-0000001.db2.g
##########           GlobalRank: 21
##########                 Rank:                    2
##########               Setnum:                   14
##########             Matchnum:                28266
##########                Cloud:                    1
##########        Electrostatic:            -9.315535
##########        Van der Waals:           -23.866879
##########  Ligand Polar Desolv:             8.526367
########## Ligand Apolar Desolv:            -1.578927
##########      Internal Energy:             0.000000
##########      Receptor Energy: 0.0
########## Receptor Desolvation:             0.000000
########## Receptor Hydrophobic:             0.000000
##########         Total Energy: -26.23
##########        Ligand Charge:             0.000000
##########            Arbitrary:    +999.9990
##########     heavy atom count:   27
##########           pose count:   10
##########        Ligand Energy:             0.000000
# num electro vdwattr vdwrepu polsolv apolsol rdesolv rhydroe totalscore fullpol fullapo
#   1   -1.29   -1.62    0.53   -0.24   -0.12    0.00    0.00      -2.74   -0.38   -0.18
#   2    0.66   -1.54    0.68    0.04   -0.08    0.00    0.00      -0.25    0.06   -0.13
#   3   -1.11   -2.73    2.07   -0.15   -0.12    0.00    0.00      -2.04   -0.24   -0.19
#   4   -3.18   -1.72    0.27    0.76    0.56    0.00    0.00      -3.31    1.16    0.86
#   5    1.87   -2.57    1.29   -0.39   -0.20    0.00    0.00       0.00   -0.61   -0.31
#   6   -1.58   -2.93    1.02   -0.04   -0.24    0.00    0.00      -3.78   -0.06   -0.38
#   7   -0.35   -2.78    0.76   -0.03   -0.30    0.00    0.00      -2.70   -0.04   -0.46
#   8   -1.67   -2.20    0.54    0.33   -0.25    0.00    0.00      -3.24    0.53   -0.40
#   9   -0.09   -1.90    0.34   -0.02   -0.26    0.00    0.00      -1.94   -0.04   -0.45
#  10   -0.92   -1.72    0.26    0.31   -0.21    0.00    0.00      -2.29    0.58   -0.40
#  11    2.00   -3.28    2.20   -0.74   -0.50    0.00    0.00      -0.31   -1.35   -0.91
#  12   -6.39   -4.26    3.09    3.05    1.17    0.00    0.00      -3.33    5.14    1.98
#  13    2.62   -2.74    0.79   -0.63   -0.43    0.00    0.00      -0.39   -1.06   -0.73
#  14   -1.90   -3.18    1.38    0.85   -0.28    0.00    0.00      -3.14    1.41   -0.47
#  15    0.84   -1.67    0.54   -0.40   -0.38    0.00    0.00      -1.06   -0.83   -0.77
#  16   -0.38   -1.48    0.31    0.50    0.46    0.00    0.00      -0.59    1.19    1.08
#  17    0.73   -1.43    0.42    0.19    0.37    0.00    0.00       0.29    0.49    0.94
#  18   -0.46   -2.05    1.35   -0.28   -0.91    0.00    0.00      -2.36   -0.62   -1.98
#  19    4.57   -3.06    2.97   -0.95    0.40    0.00    0.00       3.92   -2.00    0.83
#  20   -0.83   -2.12    1.40    0.97   -0.24    0.00    0.00      -0.81    1.73   -0.42
#  21    2.28   -2.74    0.68   -1.96   -0.34    0.00    0.00      -2.08   -3.09   -0.53
#  22   -2.56   -5.15    3.98    0.33    1.32    0.00    0.00      -2.09    0.49    1.96
#  23   -2.36   -3.80    1.83    4.03    0.27    0.00    0.00      -0.03    6.12    0.41
#  24   -0.93   -0.69    0.06    0.13   -0.04    0.00    0.00      -1.46    0.37   -0.12
#  25    1.11   -0.69    0.05   -0.09   -0.06    0.00    0.00       0.32   -0.25   -0.16
#  26    0.68   -1.88    1.49   -0.27   -0.06    0.00    0.00      -0.03   -0.77   -0.17
#  27    1.12   -0.78    0.15   -0.19   -0.06    0.00    0.00       0.25   -0.54   -0.17
#  28    0.53   -0.96    1.02    0.26   -0.15    0.00    0.00       0.69    0.49   -0.28
#  29    0.42   -0.55    0.27    0.07   -0.13    0.00    0.00       0.09    0.13   -0.24
#  30    0.42   -0.37    0.05    0.01   -0.14    0.00    0.00      -0.02    0.02   -0.28
#  31    0.80   -1.03    3.39    0.15   -0.10    0.00    0.00       3.20    0.33   -0.23
#  32    0.46   -1.44    1.99    0.01   -0.17    0.00    0.00       0.85    0.01   -0.28
#  33    0.34   -0.75    0.27    0.02   -0.15    0.00    0.00      -0.27    0.04   -0.28
#  34    0.58   -1.78    5.84    0.27   -0.15    0.00    0.00       4.75    0.49   -0.28
#  35    0.58   -0.66    0.15    0.41   -0.10    0.00    0.00       0.37    0.73   -0.18
#  36    0.30   -0.64    0.14    0.62   -0.17    0.00    0.00       0.25    1.03   -0.28
#  37    1.08   -0.51    0.23    0.05   -0.12    0.00    0.00       0.73    0.12   -0.28
#  38    0.85   -0.85    0.98   -0.70   -0.10    0.00    0.00       0.17   -1.45   -0.21
#  39    0.72   -1.29    2.69   -0.60   -0.16    0.00    0.00       1.36   -1.06   -0.28
#  40   -2.32   -0.03    0.00    0.69    0.10    0.00    0.00      -1.56    2.18    0.32
#  41   -3.95   -0.16    0.06    0.57    0.28    0.00    0.00      -3.20    1.20    0.58
#  42    0.91   -0.09    0.01    0.58    0.39    0.00    0.00       1.80    0.89    0.59
#  43    0.53   -0.17    0.03    0.12    0.41    0.00    0.00       0.93    0.17    0.60
#  44   -0.65   -0.18    0.02    0.01   -0.04    0.00    0.00      -0.85    0.05   -0.28
#  45   -0.81   -0.16    0.01    0.09   -0.05    0.00    0.00      -0.92    0.53   -0.28
#  46   -0.37   -0.33    0.04   -0.01   -0.10    0.00    0.00      -0.77   -0.03   -0.28
#  47   -0.48   -0.79    1.71    0.10   -0.05    0.00    0.00       0.50    0.43   -0.20
#  48   -0.10   -1.69    4.65    0.35   -0.11    0.00    0.00       3.10    0.87   -0.28
#  49   -0.16   -0.35    0.09    0.05   -0.07    0.00    0.00      -0.45    0.19   -0.28
#  50   -0.49   -0.13    0.01    0.00   -0.04    0.00    0.00      -0.66    0.00   -0.28
#  51   -0.42   -0.25    0.04    0.22   -0.08    0.00    0.00      -0.49    0.76   -0.28
#  52   -0.57   -0.51    0.40    0.09   -0.06    0.00    0.00      -0.66    0.29   -0.20

@<TRIPOS>MOLECULE
             1569       100
   52    54     0     0     0



@<TRIPOS>ATOM
      1 C1         11.5889    14.0185    65.3148 C.3        1          -0.1829
      2 C2         12.4753    15.0106    64.5594 C.3        1           0.0750
      3 C3         11.5966    16.0486    63.8584 C.3        1          -0.1503
      4 O1         13.3465    15.6688    65.4815 O.3        1          -0.3051
      5 C4         14.6818    15.5202    65.2816 C.ar       1           0.1555
      6 C5         15.4691    14.9369    66.2801 C.ar       1          -0.1937
      7 C6         16.8080    14.7769    66.1057 C.ar       1          -0.0482
      8 C7         17.4133    15.2002    64.9096 C.ar       1          -0.1370
      9 C8         18.7945    15.0473    64.7010 C.ar       1          -0.0088
     10 C9         19.3247    15.4874    63.4963 C.ar       1          -0.0890
     11 C10        18.4771    16.0636    62.5367 C.ar       1           0.1714
     12 N1         17.1927    16.1979    62.7500 N.ar       1          -0.4748
     13 C11        16.6238    15.7922    63.8912 C.ar       1           0.1724
     14 C12        15.2425    15.9400    64.0972 C.ar       1          -0.1471
     15 C13        20.7756    15.3504    63.2248 C.2        1           0.1819
     16 N2         21.6180    16.3262    62.9794 N.2        1          -0.2771
     17 N3         22.8948    15.7968    62.7745 N.pl3      1          -0.3790
     18 C14        22.8546    14.4553    62.8939 C.2        1           0.4181
     19 N4         23.9227    13.5923    62.7581 N.pl3      1          -0.8439
     20 C15        21.5408    14.0986    63.1862 C.2        1          -0.3646
     21 C16        21.0248    12.7443    63.4077 C.2        1           0.6095
     22 N5         20.5642    12.0203    62.3684 N.am       1          -0.8476
     23 O2         21.0123    12.2739    64.5301 O.2        1          -0.5384
     24 C17        24.0951    16.5815    62.4745 C.3        1           0.1780
     25 C18        23.7331    18.0669    62.4208 C.3        1          -0.1406
     26 C19        25.1414    16.3505    63.5667 C.3        1          -0.1653
     27 C20        24.6643    16.1460    61.1228 C.3        1          -0.1672
     28 H1         12.2149    13.2790    65.8142 H          1           0.0741
     29 H2         10.9957    14.5531    66.0568 H          1           0.0632
     30 H3         10.9244    13.5165    64.6116 H          1           0.0698
     31 H4         13.0685    14.4761    63.8174 H          1           0.0754
     32 H5         12.2282    16.7554    63.3201 H          1           0.0688
     33 H6         10.9322    15.5465    63.1550 H          1           0.0663
     34 H7         11.0035    16.5831    64.6002 H          1           0.0786
     35 H8         15.0081    14.6103    67.2005 H          1           0.1378
     36 H9         17.4051    14.3259    66.8844 H          1           0.1364
     37 H10        19.4248    14.6008    65.4559 H          1           0.1445
     38 H11        18.8948    16.4046    61.6009 H          1           0.1672
     39 H12        14.6241    16.3846    63.3315 H          1           0.1445
     40 H13        24.8054    13.9408    62.5575 H          1           0.4040
     41 H14        23.7908    12.6370    62.8634 H          1           0.4174
     42 H15        20.5741    12.3953    61.4739 H          1           0.4014
     43 H16        20.2228    11.1243    62.5149 H          1           0.4016
     44 H17        24.6262    18.6507    62.1976 H          1           0.0703
     45 H18        22.9877    18.2315    61.6426 H          1           0.0737
     46 H19        23.3275    18.3771    63.3838 H          1           0.0710
     47 H20        26.0344    16.9342    63.3435 H          1           0.0608
     48 H21        24.7359    16.6608    64.5297 H          1           0.0847
     49 H22        25.3991    15.2922    63.6049 H          1           0.0701
     50 H23        25.5574    16.7298    60.8994 H          1           0.0710
     51 H24        24.9223    15.0877    61.1610 H          1           0.0847
     52 H25        23.9189    16.3103    60.3445 H          1           0.0611
@<TRIPOS>BOND
     1    1    2 1
     2    1   28 1
     3    1   29 1
     4    1   30 1
     5    2    3 1
     6    2    4 1
     7    2   31 1
     8    3   32 1
     9    3   33 1
    10    3   34 1
    11    4    5 1
    12    5   14 ar
    13    5    6 ar
    14    6    7 ar
    15    6   35 1
    16    7    8 ar
    17    7   36 1
    18    8   13 ar
    19    8    9 ar
    20    9   10 ar
    21    9   37 1
    22   10   11 ar
    23   10   15 1
    24   11   12 ar
    25   11   38 1
    26   12   13 ar
    27   13   14 ar
    28   14   39 1
    29   15   20 1
    30   15   16 2
    31   16   17 1
    32   17   18 1
    33   17   24 1
    34   18   19 1
    35   18   20 2
    36   19   40 1
    37   19   41 1
    38   20   21 1
    39   21   22 am
    40   21   23 2
    41   22   42 1
    42   22   43 1
    43   24   25 1
    44   24   26 1
    45   24   27 1
    46   25   44 1
    47   25   45 1
    48   25   46 1
    49   26   47 1
    50   26   48 1
    51   26   49 1
    52   27   50 1
    53   27   51 1
    54   27   52 1
##########                 Name:                 1569
##########          Protonation:                  100
##########               SMILES:   CC(C)Oc1ccc2cc(cnc2c1)c3c(c(n(n3)C(C)(C)C)N)C(=O)N
##########            Long Name:   5-amino-1-tert-butyl-3-(7-isopropoxy-3-quinolyl)pyrazole-4-carboxamide
##########          FlexRecCode: 1
##########               Number:                  193
##########   Ligand Source File: /raid1/people/rgc/Examples/tdt/part3/ligand22set/build/ligand22set-0000001.db2.g
##########           GlobalRank: 21
##########                 Rank:                    3
##########               Setnum:                   48
##########             Matchnum:                28266
##########                Cloud:                    1
##########        Electrostatic:            -8.328959
##########        Van der Waals:           -23.670544
##########  Ligand Polar Desolv:             8.494017
########## Ligand Apolar Desolv:            -1.671543
##########      Internal Energy:             0.000000
##########      Receptor Energy: 0.0
########## Receptor Desolvation:             0.000000
########## Receptor Hydrophobic:             0.000000
##########         Total Energy: -25.18
##########        Ligand Charge:             0.000000
##########            Arbitrary:    +999.9990
##########     heavy atom count:   27
##########           pose count:   10
##########        Ligand Energy:             0.000000
# num electro vdwattr vdwrepu polsolv apolsol rdesolv rhydroe totalscore fullpol fullapo
#   1   -1.29   -1.62    0.53   -0.24   -0.12    0.00    0.00      -2.74   -0.38   -0.18
#   2    0.66   -1.54    0.68    0.04   -0.08    0.00    0.00      -0.25    0.06   -0.13
#   3   -1.11   -2.73    2.07   -0.15   -0.12    0.00    0.00      -2.04   -0.24   -0.19
#   4   -3.18   -1.72    0.27    0.76    0.56    0.00    0.00      -3.31    1.16    0.86
#   5    1.87   -2.57    1.29   -0.39   -0.20    0.00    0.00       0.00   -0.61   -0.31
#   6   -1.58   -2.93    1.02   -0.04   -0.24    0.00    0.00      -3.78   -0.06   -0.38
#   7   -0.35   -2.78    0.76   -0.03   -0.30    0.00    0.00      -2.70   -0.04   -0.46
#   8   -1.67   -2.20    0.54    0.33   -0.25    0.00    0.00      -3.24    0.53   -0.40
#   9   -0.09   -1.90    0.34   -0.02   -0.26    0.00    0.00      -1.94   -0.04   -0.45
#  10   -0.92   -1.72    0.26    0.31   -0.21    0.00    0.00      -2.29    0.58   -0.40
#  11    2.00   -3.28    2.20   -0.74   -0.50    0.00    0.00      -0.31   -1.35   -0.91
#  12   -6.39   -4.26    3.09    3.05    1.17    0.00    0.00      -3.33    5.14    1.98
#  13    2.62   -2.74    0.79   -0.63   -0.43    0.00    0.00      -0.39   -1.06   -0.73
#  14   -1.90   -3.18    1.38    0.85   -0.28    0.00    0.00      -3.14    1.41   -0.47
#  15    0.84   -1.67    0.54   -0.40   -0.38    0.00    0.00      -1.06   -0.83   -0.77
#  16   -0.38   -1.48    0.31    0.50    0.46    0.00    0.00      -0.59    1.19    1.08
#  17    0.73   -1.43    0.42    0.19    0.37    0.00    0.00       0.29    0.49    0.94
#  18   -0.46   -2.05    1.35   -0.28   -0.91    0.00    0.00      -2.36   -0.62   -1.98
#  19    4.57   -3.06    2.97   -0.95    0.40    0.00    0.00       3.92   -2.00    0.83
#  20   -0.83   -2.12    1.40    0.97   -0.24    0.00    0.00      -0.81    1.73   -0.42
#  21    2.28   -2.74    0.68   -1.96   -0.34    0.00    0.00      -2.08   -3.09   -0.53
#  22   -3.71   -4.92    4.05    0.32    1.29    0.00    0.00      -2.97    0.49    1.96
#  23   -1.68   -4.05    1.96    4.09    0.27    0.00    0.00       0.60    6.12    0.41
#  24   -0.93   -0.69    0.06    0.13   -0.04    0.00    0.00      -1.46    0.37   -0.12
#  25    1.11   -0.69    0.05   -0.09   -0.06    0.00    0.00       0.32   -0.25   -0.16
#  26    0.68   -1.88    1.49   -0.27   -0.06    0.00    0.00      -0.03   -0.77   -0.17
#  27    1.12   -0.78    0.15   -0.19   -0.06    0.00    0.00       0.25   -0.54   -0.17
#  28    0.53   -0.96    1.02    0.26   -0.15    0.00    0.00       0.69    0.49   -0.28
#  29    0.42   -0.55    0.27    0.07   -0.13    0.00    0.00       0.09    0.13   -0.24
#  30    0.42   -0.37    0.05    0.01   -0.14    0.00    0.00      -0.02    0.02   -0.28
#  31    0.80   -1.03    3.39    0.15   -0.10    0.00    0.00       3.20    0.33   -0.23
#  32    0.46   -1.44    1.99    0.01   -0.17    0.00    0.00       0.85    0.01   -0.28
#  33    0.34   -0.75    0.27    0.02   -0.15    0.00    0.00      -0.27    0.04   -0.28
#  34    0.58   -1.78    5.84    0.27   -0.15    0.00    0.00       4.75    0.49   -0.28
#  35    0.58   -0.66    0.15    0.41   -0.10    0.00    0.00       0.37    0.73   -0.18
#  36    0.30   -0.64    0.14    0.62   -0.17    0.00    0.00       0.25    1.03   -0.28
#  37    1.08   -0.51    0.23    0.05   -0.12    0.00    0.00       0.73    0.12   -0.28
#  38    0.85   -0.85    0.98   -0.70   -0.10    0.00    0.00       0.17   -1.45   -0.21
#  39    0.72   -1.29    2.69   -0.60   -0.16    0.00    0.00       1.36   -1.06   -0.28
#  40   -2.32   -0.03    0.00    0.69    0.10    0.00    0.00      -1.56    2.18    0.32
#  41   -3.95   -0.16    0.06    0.57    0.28    0.00    0.00      -3.20    1.20    0.58
#  42    2.19   -0.11    0.02    0.50    0.33    0.00    0.00       2.94    0.89    0.59
#  43    0.71   -0.15    0.02    0.11    0.39    0.00    0.00       1.09    0.17    0.60
#  44   -0.65   -0.18    0.02    0.01   -0.04    0.00    0.00      -0.85    0.05   -0.28
#  45   -0.81   -0.16    0.01    0.09   -0.05    0.00    0.00      -0.92    0.53   -0.28
#  46   -0.37   -0.33    0.04   -0.01   -0.10    0.00    0.00      -0.77   -0.03   -0.28
#  47   -0.48   -0.79    1.71    0.10   -0.05    0.00    0.00       0.50    0.43   -0.20
#  48   -0.10   -1.69    4.65    0.35   -0.11    0.00    0.00       3.10    0.87   -0.28
#  49   -0.16   -0.35    0.09    0.05   -0.07    0.00    0.00      -0.45    0.19   -0.28
#  50   -0.49   -0.13    0.01    0.00   -0.04    0.00    0.00      -0.66    0.00   -0.28
#  51   -0.42   -0.25    0.04    0.22   -0.08    0.00    0.00      -0.49    0.76   -0.28
#  52   -0.57   -0.51    0.40    0.09   -0.06    0.00    0.00      -0.66    0.29   -0.20

@<TRIPOS>MOLECULE
             1569       100
   52    54     0     0     0



@<TRIPOS>ATOM
      1 C1         11.5889    14.0185    65.3148 C.3        1          -0.1829
      2 C2         12.4753    15.0106    64.5594 C.3        1           0.0750
      3 C3         11.5966    16.0486    63.8584 C.3        1          -0.1503
      4 O1         13.3465    15.6688    65.4815 O.3        1          -0.3051
      5 C4         14.6818    15.5202    65.2816 C.ar       1           0.1555
      6 C5         15.4691    14.9369    66.2801 C.ar       1          -0.1937
      7 C6         16.8080    14.7769    66.1057 C.ar       1          -0.0482
      8 C7         17.4133    15.2002    64.9096 C.ar       1          -0.1370
      9 C8         18.7945    15.0473    64.7010 C.ar       1          -0.0088
     10 C9         19.3247    15.4874    63.4963 C.ar       1          -0.0890
     11 C10        18.4771    16.0636    62.5367 C.ar       1           0.1714
     12 N1         17.1927    16.1979    62.7500 N.ar       1          -0.4748
     13 C11        16.6238    15.7922    63.8912 C.ar       1           0.1724
     14 C12        15.2425    15.9400    64.0972 C.ar       1          -0.1471
     15 C13        20.7756    15.3504    63.2248 C.2        1           0.1819
     16 N2         21.6180    16.3262    62.9794 N.2        1          -0.2771
     17 N3         22.8948    15.7968    62.7745 N.pl3      1          -0.3790
     18 C14        22.8546    14.4553    62.8939 C.2        1           0.4181
     19 N4         23.9227    13.5923    62.7581 N.pl3      1          -0.8439
     20 C15        21.5408    14.0986    63.1862 C.2        1          -0.3646
     21 C16        21.0248    12.7443    63.4077 C.2        1           0.6095
     22 N5         21.0111    12.2233    64.6506 N.am       1          -0.8476
     23 O2         20.6090    12.0905    62.4693 O.2        1          -0.5384
     24 C17        24.0951    16.5815    62.4745 C.3        1           0.1780
     25 C18        23.7331    18.0669    62.4208 C.3        1          -0.1406
     26 C19        25.1414    16.3505    63.5667 C.3        1          -0.1653
     27 C20        24.6643    16.1460    61.1228 C.3        1          -0.1672
     28 H1         12.2149    13.2790    65.8142 H          1           0.0741
     29 H2         10.9957    14.5531    66.0568 H          1           0.0632
     30 H3         10.9244    13.5165    64.6116 H          1           0.0698
     31 H4         13.0685    14.4761    63.8174 H          1           0.0754
     32 H5         12.2282    16.7554    63.3201 H          1           0.0688
     33 H6         10.9322    15.5465    63.1550 H          1           0.0663
     34 H7         11.0035    16.5831    64.6002 H          1           0.0786
     35 H8         15.0081    14.6103    67.2005 H          1           0.1378
     36 H9         17.4051    14.3259    66.8844 H          1           0.1364
     37 H10        19.4248    14.6008    65.4559 H          1           0.1445
     38 H11        18.8948    16.4046    61.6009 H          1           0.1672
     39 H12        14.6241    16.3846    63.3315 H          1           0.1445
     40 H13        24.8054    13.9408    62.5575 H          1           0.4040
     41 H14        23.7908    12.6370    62.8634 H          1           0.4174
     42 H15        21.3426    12.7443    65.3987 H          1           0.4014
     43 H16        20.6697    11.3273    64.7971 H          1           0.4016
     44 H17        24.6262    18.6507    62.1976 H          1           0.0703
     45 H18        22.9877    18.2315    61.6426 H          1           0.0737
     46 H19        23.3275    18.3771    63.3838 H          1           0.0710
     47 H20        26.0344    16.9342    63.3435 H          1           0.0608
     48 H21        24.7359    16.6608    64.5297 H          1           0.0847
     49 H22        25.3991    15.2922    63.6049 H          1           0.0701
     50 H23        25.5574    16.7298    60.8994 H          1           0.0710
     51 H24        24.9223    15.0877    61.1610 H          1           0.0847
     52 H25        23.9189    16.3103    60.3445 H          1           0.0611
@<TRIPOS>BOND
     1    1    2 1
     2    1   28 1
     3    1   29 1
     4    1   30 1
     5    2    3 1
     6    2    4 1
     7    2   31 1
     8    3   32 1
     9    3   33 1
    10    3   34 1
    11    4    5 1
    12    5   14 ar
    13    5    6 ar
    14    6    7 ar
    15    6   35 1
    16    7    8 ar
    17    7   36 1
    18    8   13 ar
    19    8    9 ar
    20    9   10 ar
    21    9   37 1
    22   10   11 ar
    23   10   15 1
    24   11   12 ar
    25   11   38 1
    26   12   13 ar
    27   13   14 ar
    28   14   39 1
    29   15   20 1
    30   15   16 2
    31   16   17 1
    32   17   18 1
    33   17   24 1
    34   18   19 1
    35   18   20 2
    36   19   40 1
    37   19   41 1
    38   20   21 1
    39   21   22 am
    40   21   23 2
    41   22   42 1
    42   22   43 1
    43   24   25 1
    44   24   26 1
    45   24   27 1
    46   25   44 1
    47   25   45 1
    48   25   46 1
    49   26   47 1
    50   26   48 1
    51   26   49 1
    52   27   50 1
    53   27   51 1
    54   27   52 1
##########                 Name:                 1569
##########          Protonation:                  100
##########               SMILES:   CC(C)Oc1ccc2cc(cnc2c1)c3c(c(n(n3)C(C)(C)C)N)C(=O)N
##########            Long Name:   5-amino-1-tert-butyl-3-(7-isopropoxy-3-quinolyl)pyrazole-4-carboxamide
##########          FlexRecCode: 1
##########               Number:                  192
##########   Ligand Source File: /raid1/people/rgc/Examples/tdt/part3/ligand22set/build/ligand22set-0000001.db2.g
##########           GlobalRank: 21
##########                 Rank:                    1
##########               Setnum:                   95
##########             Matchnum:                21265
##########                Cloud:                    1
##########        Electrostatic:            -0.068369
##########        Van der Waals:           -28.602928
##########  Ligand Polar Desolv:             5.393460
########## Ligand Apolar Desolv:            -1.858307
##########      Internal Energy:             0.000000
##########      Receptor Energy: 0.0
########## Receptor Desolvation:             0.000000
########## Receptor Hydrophobic:             0.000000
##########         Total Energy: -25.14
##########        Ligand Charge:             0.000000
##########            Arbitrary:    +999.9990
##########     heavy atom count:   27
##########           pose count:   10
##########        Ligand Energy:             0.000000
# num electro vdwattr vdwrepu polsolv apolsol rdesolv rhydroe totalscore fullpol fullapo
#   1   -3.31   -1.74    0.61   -0.23   -0.11    0.00    0.00      -4.79   -0.38   -0.18
#   2    0.97   -1.39    0.23    0.04   -0.08    0.00    0.00      -0.23    0.06   -0.13
#   3   -0.91   -2.04    0.54   -0.15   -0.12    0.00    0.00      -2.68   -0.24   -0.19
#   4   -2.86   -1.61    0.32    0.69    0.51    0.00    0.00      -2.95    1.16    0.86
#   5    1.06   -1.60    0.21   -0.35   -0.18    0.00    0.00      -0.86   -0.61   -0.31
#   6   -0.78   -1.97    0.33   -0.04   -0.23    0.00    0.00      -2.70   -0.06   -0.38
#   7   -0.14   -2.24    0.50   -0.02   -0.27    0.00    0.00      -2.18   -0.04   -0.46
#   8   -0.08   -1.78    0.52    0.25   -0.19    0.00    0.00      -1.28    0.53   -0.40
#   9    0.02   -1.66    0.34   -0.02   -0.20    0.00    0.00      -1.52   -0.04   -0.45
#  10    0.33   -1.24    0.17    0.21   -0.14    0.00    0.00      -0.68    0.58   -0.40
#  11   -0.81   -1.24    0.16   -0.49   -0.33    0.00    0.00      -2.71   -1.35   -0.91
#  12    0.92   -1.29    0.13    2.16    0.83    0.00    0.00       2.75    5.14    1.98
#  13    0.30   -1.55    0.35   -0.46   -0.31    0.00    0.00      -1.68   -1.06   -0.73
#  14   -1.05   -1.74    0.41    0.66   -0.22    0.00    0.00      -1.94    1.41   -0.47
#  15   -0.73   -1.00    0.14   -0.24   -0.22    0.00    0.00      -2.06   -0.83   -0.77
#  16    0.65   -1.30    0.29    0.33    0.30    0.00    0.00       0.27    1.19    1.08
#  17    0.41   -0.55    0.03    0.09    0.18    0.00    0.00       0.16    0.49    0.94
#  18   -0.58   -0.43    0.02   -0.10   -0.33    0.00    0.00      -1.43   -0.62   -1.98
#  19   -0.02   -0.32    0.01   -0.27    0.11    0.00    0.00      -0.49   -2.00    0.83
#  20    1.34   -0.61    0.03    0.42   -0.10    0.00    0.00       1.07    1.73   -0.42
#  21   -3.60   -0.96    0.10   -0.93   -0.16    0.00    0.00      -5.55   -3.09   -0.53
#  22    8.63   -1.53    0.43    0.18    0.70    0.00    0.00       8.41    0.49    1.96
#  23    2.12   -1.11    0.13    1.94    0.13    0.00    0.00       3.22    6.12    0.41
#  24    0.09   -0.24    0.01    0.05   -0.02    0.00    0.00      -0.11    0.37   -0.12
#  25   -0.14   -0.55    0.13   -0.06   -0.04    0.00    0.00      -0.66   -0.25   -0.16
#  26   -0.15   -0.20    0.01   -0.09   -0.02    0.00    0.00      -0.45   -0.77   -0.17
#  27   -0.20   -0.17    0.00   -0.06   -0.02    0.00    0.00      -0.44   -0.54   -0.17
#  28    1.69   -0.70    0.39    0.26   -0.15    0.00    0.00       1.49    0.49   -0.28
#  29    0.80   -0.51    0.22    0.06   -0.10    0.00    0.00       0.45    0.13   -0.24
#  30    1.59   -0.96    1.16    0.01   -0.13    0.00    0.00       1.66    0.02   -0.28
#  31    1.21   -0.71    0.51    0.15   -0.11    0.00    0.00       1.06    0.33   -0.23
#  32    0.39   -1.11    1.99    0.01   -0.16    0.00    0.00       1.12    0.01   -0.28
#  33    0.47   -0.80    0.26    0.02   -0.17    0.00    0.00      -0.22    0.04   -0.28
#  34    0.03   -0.84    0.73    0.27   -0.16    0.00    0.00       0.03    0.49   -0.28
#  35    0.27   -0.53    0.11    0.43   -0.11    0.00    0.00       0.18    0.73   -0.18
#  36    0.63   -0.78    0.35    0.56   -0.15    0.00    0.00       0.61    1.03   -0.28
#  37   -0.74   -0.47    0.25    0.04   -0.10    0.00    0.00      -1.02    0.12   -0.28
#  38   -1.24   -0.23    0.03   -0.28   -0.04    0.00    0.00      -1.76   -1.45   -0.21
#  39    2.11   -0.55    0.39   -0.39   -0.10    0.00    0.00       1.46   -1.06   -0.28
#  40    0.29    0.00    0.00    0.09    0.01    0.00    0.00       0.38    2.18    0.32
#  41    0.03   -0.01    0.00    0.09    0.04    0.00    0.00       0.15    1.20    0.58
#  42   -3.40   -0.02    0.00    0.20    0.13    0.00    0.00      -3.09    0.89    0.59
#  43   -6.33   -0.04    0.00    0.06    0.21    0.00    0.00      -6.10    0.17    0.60
#  44    0.10   -0.10    0.01    0.01   -0.04    0.00    0.00      -0.03    0.05   -0.28
#  45    0.05   -0.35    0.16    0.15   -0.08    0.00    0.00      -0.07    0.53   -0.28
#  46    0.07   -0.20    0.07    0.00   -0.04    0.00    0.00      -0.11   -0.03   -0.28
#  47    0.06   -0.03    0.00    0.01   -0.01    0.00    0.00       0.04    0.43   -0.20
#  48    0.05   -0.11    0.01    0.09   -0.03    0.00    0.00       0.01    0.87   -0.28
#  49    0.07   -0.05    0.00    0.01   -0.01    0.00    0.00       0.01    0.19   -0.28
#  50    0.09   -0.03    0.00    0.00   -0.01    0.00    0.00       0.05    0.00   -0.28
#  51    0.10   -0.03    0.00    0.02   -0.01    0.00    0.00       0.09    0.76   -0.28
#  52    0.08   -0.09    0.01    0.03   -0.02    0.00    0.00       0.00    0.29   -0.20

@<TRIPOS>MOLECULE
             1569       100
   52    54     0     0     0



@<TRIPOS>ATOM
      1 C1         16.6927    16.0772    64.8997 C.3        1          -0.1829
      2 C2         18.0892    15.5229    65.1886 C.3        1           0.0750
      3 C3         18.0415    14.6494    66.4437 C.3        1          -0.1503
      4 O1         18.5291    14.7380    64.0783 O.3        1          -0.3051
      5 C4         19.8667    14.6926    63.8468 C.ar       1           0.1555
      6 C5         20.5321    13.4624    63.8789 C.ar       1          -0.1937
      7 C6         21.8705    13.3891    63.6511 C.ar       1          -0.0482
      8 C7         22.5991    14.5601    63.3791 C.ar       1          -0.1370
      9 C8         23.9829    14.5150    63.1393 C.ar       1          -0.0088
     10 C9         24.6385    15.7099    62.8769 C.ar       1          -0.0890
     11 C10        23.9095    16.9097    62.8594 C.ar       1           0.1714
     12 N1         22.6205    16.9310    63.0858 N.ar       1          -0.4748
     13 C11        21.9337    15.8119    63.3439 C.ar       1           0.1724
     14 C12        20.5498    15.8564    63.5780 C.ar       1          -0.1471
     15 C13        26.0979    15.7193    62.6174 C.2        1           0.1819
     16 N2         27.0373    15.3045    63.4343 N.2        1          -0.2771
     17 N3         28.2860    15.4755    62.8312 N.pl3      1          -0.3790
     18 C14        28.1284    16.0111    61.6048 C.2        1           0.4181
     19 N4         29.1362    16.3211    60.7148 N.pl3      1          -0.8439
     20 C15        26.7631    16.1885    61.3962 C.2        1          -0.3646
     21 C16        26.1197    16.7369    60.1984 C.2        1           0.6095
     22 N5         24.7777    16.8502    60.1465 N.am       1          -0.8476
     23 O2         26.7973    17.0897    59.2511 O.2        1          -0.5384
     24 C17        29.5719    15.1263    63.4402 C.3        1           0.1780
     25 C18        29.3345    14.5465    64.8359 C.3        1          -0.1406
     26 C19        30.2828    14.0874    62.5704 C.3        1          -0.1653
     27 C20        30.4416    16.3804    63.5499 C.3        1          -0.1672
     28 H1         16.7266    16.6996    64.0055 H          1           0.0741
     29 H2         15.9995    15.2511    64.7413 H          1           0.0632
     30 H3         16.3570    16.6759    65.7465 H          1           0.0698
     31 H4         18.7824    16.3490    65.3469 H          1           0.0754
     32 H5         19.0365    14.2544    66.6495 H          1           0.0688
     33 H6         17.7060    15.2481    67.2905 H          1           0.0663
     34 H7         17.3484    13.8233    66.2854 H          1           0.0786
     35 H8         19.9761    12.5603    64.0875 H          1           0.1378
     36 H9         22.3727    12.4333    63.6794 H          1           0.1364
     37 H10        24.5204    13.5785    63.1588 H          1           0.1445
     38 H11        24.4244    17.8367    62.6548 H          1           0.1672
     39 H12        20.0249    16.8000    63.5510 H          1           0.1445
     40 H13        30.0616    16.1543    60.9525 H          1           0.4040
     41 H14        28.9192    16.7056    59.8509 H          1           0.4174
     42 H15        24.2376    16.5689    60.9014 H          1           0.4014
     43 H16        24.3519    17.2130    59.3541 H          1           0.4016
     44 H17        30.2913    14.2867    65.2889 H          1           0.0703
     45 H18        28.8282    15.2867    65.4556 H          1           0.0737
     46 H19        28.7150    13.6532    64.7576 H          1           0.0710
     47 H20        31.2395    13.8275    63.0233 H          1           0.0608
     48 H21        29.6632    13.1940    62.4921 H          1           0.0847
     49 H22        30.4517    14.5005    61.5759 H          1           0.0701
     50 H23        31.3984    16.1205    64.0030 H          1           0.0710
     51 H24        30.6109    16.7933    62.5555 H          1           0.0847
     52 H25        29.9354    17.1206    64.1694 H          1           0.0611
@<TRIPOS>BOND
     1    1    2 1
     2    1   28 1
     3    1   29 1
     4    1   30 1
     5    2    3 1
     6    2    4 1
     7    2   31 1
     8    3   32 1
     9    3   33 1
    10    3   34 1
    11    4    5 1
    12    5   14 ar
    13    5    6 ar
    14    6    7 ar
    15    6   35 1
    16    7    8 ar
    17    7   36 1
    18    8   13 ar
    19    8    9 ar
    20    9   10 ar
    21    9   37 1
    22   10   11 ar
    23   10   15 1
    24   11   12 ar
    25   11   38 1
    26   12   13 ar
    27   13   14 ar
    28   14   39 1
    29   15   20 1
    30   15   16 2
    31   16   17 1
    32   17   18 1
    33   17   24 1
    34   18   19 1
    35   18   20 2
    36   19   40 1
    37   19   41 1
    38   20   21 1
    39   21   22 am
    40   21   23 2
    41   22   42 1
    42   22   43 1
    43   24   25 1
    44   24   26 1
    45   24   27 1
    46   25   44 1
    47   25   45 1
    48   25   46 1
    49   26   47 1
    50   26   48 1
    51   26   49 1
    52   27   50 1
    53   27   51 1
    54   27   52 1
##########                 Name:                 1569
##########          Protonation:                  100
##########               SMILES:   CC(C)Oc1ccc2cc(cnc2c1)c3c(c(n(n3)C(C)(C)C)N)C(=O)N
##########            Long Name:   5-amino-1-tert-butyl-3-(7-isopropoxy-3-quinolyl)pyrazole-4-carboxamide
##########          FlexRecCode: 1
##########               Number:                  192
##########   Ligand Source File: /raid1/people/rgc/Examples/tdt/part3/ligand22set/build/ligand22set-0000001.db2.g
##########           GlobalRank: 21
##########                 Rank:                    2
##########               Setnum:                   95
##########             Matchnum:                56339
##########                Cloud:                    1
##########        Electrostatic:             0.374831
##########        Van der Waals:           -28.222769
##########  Ligand Polar Desolv:             4.932954
########## Ligand Apolar Desolv:            -2.082233
##########      Internal Energy:             0.000000
##########      Receptor Energy: 0.0
########## Receptor Desolvation:             0.000000
########## Receptor Hydrophobic:             0.000000
##########         Total Energy: -25.0
##########        Ligand Charge:             0.000000
##########            Arbitrary:    +999.9990
##########     heavy atom count:   27
##########           pose count:   10
##########        Ligand Energy:             0.000000
# num electro vdwattr vdwrepu polsolv apolsol rdesolv rhydroe totalscore fullpol fullapo
#   1   -3.52   -1.88    0.73   -0.23   -0.11    0.00    0.00      -5.01   -0.38   -0.18
#   2    1.09   -1.36    0.22    0.04   -0.08    0.00    0.00      -0.09    0.06   -0.13
#   3   -1.12   -1.69    0.32   -0.15   -0.12    0.00    0.00      -2.76   -0.24   -0.19
#   4   -3.02   -1.55    0.25    0.67    0.50    0.00    0.00      -3.15    1.16    0.86
#   5    1.07   -1.58    0.22   -0.34   -0.17    0.00    0.00      -0.80   -0.61   -0.31
#   6   -0.78   -1.84    0.29   -0.04   -0.23    0.00    0.00      -2.60   -0.06   -0.38
#   7   -0.12   -2.11    0.49   -0.02   -0.26    0.00    0.00      -2.03   -0.04   -0.46
#   8   -0.08   -1.72    0.42    0.25   -0.19    0.00    0.00      -1.33    0.53   -0.40
#   9    0.02   -1.75    0.43   -0.02   -0.19    0.00    0.00      -1.51   -0.04   -0.45
#  10    0.30   -1.69    0.51    0.21   -0.14    0.00    0.00      -0.82    0.58   -0.40
#  11   -0.80   -1.69    0.45   -0.50   -0.34    0.00    0.00      -2.88   -1.35   -0.91
#  12    0.99   -1.43    0.16    2.21    0.85    0.00    0.00       2.77    5.14    1.98
#  13    0.26   -1.56    0.31   -0.45   -0.31    0.00    0.00      -1.76   -1.06   -0.73
#  14   -1.01   -1.79    0.44    0.65   -0.22    0.00    0.00      -1.92    1.41   -0.47
#  15   -0.78   -1.68    0.83   -0.23   -0.22    0.00    0.00      -2.08   -0.83   -0.77
#  16    0.59   -2.49    1.47    0.35    0.32    0.00    0.00       0.25    1.19    1.08
#  17    0.35   -0.85    0.15    0.10    0.19    0.00    0.00      -0.07    0.49    0.94
#  18   -0.50   -0.48    0.04   -0.10   -0.31    0.00    0.00      -1.35   -0.62   -1.98
#  19   -0.19   -0.23    0.00   -0.20    0.08    0.00    0.00      -0.53   -2.00    0.83
#  20    1.36   -0.68    0.09    0.35   -0.08    0.00    0.00       1.03    1.73   -0.42
#  21   -3.19   -0.60    0.03   -0.74   -0.13    0.00    0.00      -4.63   -3.09   -0.53
#  22    7.74   -0.89    0.07    0.15    0.60    0.00    0.00       7.68    0.49    1.96
#  23    1.84   -0.51    0.02    1.47    0.10    0.00    0.00       2.92    6.12    0.41
#  24    0.14   -0.35    0.03    0.07   -0.02    0.00    0.00      -0.13    0.37   -0.12
#  25   -0.19   -1.02    0.61   -0.08   -0.05    0.00    0.00      -0.74   -0.25   -0.16
#  26   -0.18   -0.17    0.00   -0.08   -0.02    0.00    0.00      -0.44   -0.77   -0.17
#  27   -0.21   -0.26    0.01   -0.08   -0.03    0.00    0.00      -0.57   -0.54   -0.17
#  28    1.68   -0.85    0.58    0.27   -0.16    0.00    0.00       1.52    0.49   -0.28
#  29    0.83   -0.53    0.20    0.06   -0.12    0.00    0.00       0.44    0.13   -0.24
#  30    1.74   -0.99    1.52    0.01   -0.14    0.00    0.00       2.13    0.02   -0.28
#  31    1.35   -0.69    0.44    0.15   -0.10    0.00    0.00       1.15    0.33   -0.23
#  32    0.40   -0.74    0.56    0.01   -0.15    0.00    0.00       0.08    0.01   -0.28
#  33    0.58   -0.61    0.14    0.02   -0.16    0.00    0.00      -0.03    0.04   -0.28
#  34    0.27   -0.80    0.63    0.25   -0.14    0.00    0.00       0.21    0.49   -0.28
#  35    0.38   -0.45    0.06    0.41   -0.10    0.00    0.00       0.31    0.73   -0.18
#  36    0.44   -0.66    0.22    0.53   -0.15    0.00    0.00       0.39    1.03   -0.28
#  37   -0.50   -0.38    0.09    0.04   -0.10    0.00    0.00      -0.84    0.12   -0.28
#  38   -1.25   -0.40    0.18   -0.37   -0.05    0.00    0.00      -1.89   -1.45   -0.21
#  39    2.10   -0.63    0.61   -0.39   -0.10    0.00    0.00       1.59   -1.06   -0.28
#  40    0.36    0.00    0.00    0.07    0.01    0.00    0.00       0.44    2.18    0.32
#  41    0.04    0.00    0.00    0.05    0.02    0.00    0.00       0.11    1.20    0.58
#  42   -3.25   -0.01    0.00    0.14    0.09    0.00    0.00      -3.03    0.89    0.59
#  43   -5.59   -0.02    0.00    0.05    0.16    0.00    0.00      -5.40    0.17    0.60
#  44    0.11   -0.20    0.03    0.01   -0.07    0.00    0.00      -0.12    0.05   -0.28
#  45    0.06   -0.70    0.71    0.21   -0.11    0.00    0.00       0.17    0.53   -0.28
#  46    0.11   -0.43    0.57   -0.01   -0.07    0.00    0.00       0.17   -0.03   -0.28
#  47    0.07   -0.03    0.00    0.01   -0.01    0.00    0.00       0.04    0.43   -0.20
#  48    0.06   -0.07    0.00    0.05   -0.02    0.00    0.00       0.03    0.87   -0.28
#  49    0.07   -0.03    0.00    0.01   -0.01    0.00    0.00       0.04    0.19   -0.28
#  50    0.09   -0.05    0.00    0.00   -0.01    0.00    0.00       0.03    0.00   -0.28
#  51    0.11   -0.04    0.00    0.03   -0.01    0.00    0.00       0.09    0.76   -0.28
#  52    0.07   -0.16    0.02    0.04   -0.03    0.00    0.00      -0.06    0.29   -0.20

@<TRIPOS>MOLECULE
             1569       100
   52    54     0     0     0



@<TRIPOS>ATOM
      1 C1         16.6885    16.2385    64.4103 C.3        1          -0.1829
      2 C2         18.0485    15.6775    64.8301 C.3        1           0.0750
      3 C3         17.8698    14.7597    66.0411 C.3        1          -0.1503
      4 O1         18.6116    14.9336    63.7476 O.3        1          -0.3051
      5 C4         19.9667    14.8995    63.6620 C.ar       1           0.1555
      6 C5         20.6321    13.6704    63.7232 C.ar       1          -0.1937
      7 C6         21.9878    13.6083    63.6404 C.ar       1          -0.0482
      8 C7         22.7346    14.7899    63.4908 C.ar       1          -0.1370
      9 C8         24.1364    14.7565    63.4019 C.ar       1          -0.0088
     10 C9         24.8094    15.9614    63.2547 C.ar       1          -0.0890
     11 C10        24.0793    17.1594    63.2000 C.ar       1           0.1714
     12 N1         22.7732    17.1697    63.2850 N.ar       1          -0.4748
     13 C11        22.0693    16.0406    63.4272 C.ar       1           0.1724
     14 C12        20.6679    16.0737    63.5103 C.ar       1          -0.1471
     15 C13        26.2884    15.9833    63.1565 C.2        1           0.1819
     16 N2         27.1357    15.5418    64.0560 N.2        1          -0.2771
     17 N3         28.4416    15.7370    63.5990 N.pl3      1          -0.3790
     18 C14        28.4152    16.3155    62.3823 C.2        1           0.4181
     19 N4         29.5121    16.6593    61.6190 N.pl3      1          -0.8439
     20 C15        27.0798    16.4972    62.0324 C.2        1          -0.3646
     21 C16        26.5673    17.0864    60.7916 C.2        1           0.6095
     22 N5         25.2382    17.1984    60.5976 N.am       1          -0.8476
     23 O2         27.3419    17.4742    59.9368 O.2        1          -0.5384
     24 C17        29.6556    15.3693    64.3320 C.3        1           0.1780
     25 C18        29.2711    14.7396    65.6723 C.3        1          -0.1406
     26 C19        30.4634    14.3636    63.5090 C.3        1          -0.1653
     27 C20        30.5004    16.6206    64.5799 C.3        1          -0.1672
     28 H1         16.8158    16.8924    63.5476 H          1           0.0741
     29 H2         16.0217    15.4170    64.1483 H          1           0.0632
     30 H3         16.2589    16.8059    65.2359 H          1           0.0698
     31 H4         18.7153    16.4990    65.0921 H          1           0.0754
     32 H5         18.8388    14.3599    66.3402 H          1           0.0688
     33 H6         17.4404    15.3272    66.8668 H          1           0.0663
     34 H7         17.2031    13.9383    65.7793 H          1           0.0786
     35 H8         20.0623    12.7602    63.8382 H          1           0.1378
     36 H9         22.4898    12.6533    63.6897 H          1           0.1364
     37 H10        24.6744    13.8211    63.4471 H          1           0.1445
     38 H11        24.6078    18.0943    63.0855 H          1           0.1672
     39 H12        20.1433    17.0164    63.4594 H          1           0.1445
     40 H13        30.4071    16.4862    61.9503 H          1           0.4040
     41 H14        29.3881    17.0738    60.7507 H          1           0.4174
     42 H15        24.6209    16.8893    61.2787 H          1           0.4014
     43 H16        24.8992    17.5882    59.7766 H          1           0.4016
     44 H17        30.1744    14.4660    66.2176 H          1           0.0703
     45 H18        28.6958    15.4562    66.2587 H          1           0.0737
     46 H19        28.6693    13.8483    65.4955 H          1           0.0710
     47 H20        31.3666    14.0899    64.0542 H          1           0.0608
     48 H21        29.8615    13.4721    63.3323 H          1           0.0847
     49 H22        30.7371    14.8122    62.5540 H          1           0.0701
     50 H23        31.4037    16.3469    65.1253 H          1           0.0710
     51 H24        30.7745    17.0691    63.6251 H          1           0.0847
     52 H25        29.9252    17.3372    65.1661 H          1           0.0611
@<TRIPOS>BOND
     1    1    2 1
     2    1   28 1
     3    1   29 1
     4    1   30 1
     5    2    3 1
     6    2    4 1
     7    2   31 1
     8    3   32 1
     9    3   33 1
    10    3   34 1
    11    4    5 1
    12    5   14 ar
    13    5    6 ar
    14    6    7 ar
    15    6   35 1
    16    7    8 ar
    17    7   36 1
    18    8   13 ar
    19    8    9 ar
    20    9   10 ar
    21    9   37 1
    22   10   11 ar
    23   10   15 1
    24   11   12 ar
    25   11   38 1
    26   12   13 ar
    27   13   14 ar
    28   14   39 1
    29   15   20 1
    30   15   16 2
    31   16   17 1
    32   17   18 1
    33   17   24 1
    34   18   19 1
    35   18   20 2
    36   19   40 1
    37   19   41 1
    38   20   21 1
    39   21   22 am
    40   21   23 2
    41   22   42 1
    42   22   43 1
    43   24   25 1
    44   24   26 1
    45   24   27 1
    46   25   44 1
    47   25   45 1
    48   25   46 1
    49   26   47 1
    50   26   48 1
    51   26   49 1
    52   27   50 1
    53   27   51 1
    54   27   52 1
##########                 Name:                 1569
##########          Protonation:                  100
##########               SMILES:   CC(C)Oc1ccc2cc(cnc2c1)c3c(c(n(n3)C(C)(C)C)N)C(=O)N
##########            Long Name:   5-amino-1-tert-butyl-3-(7-isopropoxy-3-quinolyl)pyrazole-4-carboxamide
##########          FlexRecCode: 1
##########               Number:                  192
##########   Ligand Source File: /raid1/people/rgc/Examples/tdt/part3/ligand22set/build/ligand22set-0000001.db2.g
##########           GlobalRank: 21
##########                 Rank:                    3
##########               Setnum:                  117
##########             Matchnum:                41866
##########                Cloud:                    1
##########        Electrostatic:             0.525146
##########        Van der Waals:           -28.352064
##########  Ligand Polar Desolv:             5.333224
########## Ligand Apolar Desolv:            -2.177564
##########      Internal Energy:             0.000000
##########      Receptor Energy: 0.0
########## Receptor Desolvation:             0.000000
########## Receptor Hydrophobic:             0.000000
##########         Total Energy: -24.67
##########        Ligand Charge:             0.000000
##########            Arbitrary:    +999.9990
##########     heavy atom count:   27
##########           pose count:   10
##########        Ligand Energy:             0.000000
# num electro vdwattr vdwrepu polsolv apolsol rdesolv rhydroe totalscore fullpol fullapo
#   1   -3.24   -1.88    0.62   -0.23   -0.11    0.00    0.00      -4.83   -0.38   -0.18
#   2    0.97   -1.39    0.24    0.04   -0.08    0.00    0.00      -0.22    0.06   -0.13
#   3   -0.93   -1.94    0.59   -0.16   -0.12    0.00    0.00      -2.56   -0.24   -0.19
#   4   -2.68   -2.39    1.71    0.70    0.52    0.00    0.00      -2.15    1.16    0.86
#   5    1.13   -1.72    0.25   -0.36   -0.18    0.00    0.00      -0.88   -0.61   -0.31
#   6   -0.83   -2.32    0.83   -0.04   -0.23    0.00    0.00      -2.59   -0.06   -0.38
#   7   -0.19   -2.34    0.68   -0.02   -0.27    0.00    0.00      -2.16   -0.04   -0.46
#   8   -0.29   -1.77    0.41    0.26   -0.20    0.00    0.00      -1.58    0.53   -0.40
#   9    0.01   -1.82    0.49   -0.02   -0.20    0.00    0.00      -1.55   -0.04   -0.45
#  10    0.28   -1.32    0.20    0.22   -0.15    0.00    0.00      -0.77    0.58   -0.40
#  11   -0.77   -1.12    0.10   -0.53   -0.35    0.00    0.00      -2.67   -1.35   -0.91
#  12    0.32   -1.35    0.19    2.21    0.85    0.00    0.00       2.21    5.14    1.98
#  13    0.60   -1.60    0.39   -0.46   -0.32    0.00    0.00      -1.40   -1.06   -0.73
#  14   -1.32   -1.69    0.30    0.70   -0.23    0.00    0.00      -2.24    1.41   -0.47
#  15   -0.88   -1.33    0.36   -0.25   -0.23    0.00    0.00      -2.33   -0.83   -0.77
#  16    0.84   -1.17    0.18    0.36    0.33    0.00    0.00       0.53    1.19    1.08
#  17    0.85   -0.74    0.09    0.10    0.20    0.00    0.00       0.50    0.49    0.94
#  18   -1.40   -0.82    0.28   -0.11   -0.35    0.00    0.00      -2.40   -0.62   -1.98
#  19    0.58   -0.38    0.03   -0.25    0.11    0.00    0.00       0.07   -2.00    0.83
#  20    2.45   -1.23    0.65    0.39   -0.09    0.00    0.00       2.16    1.73   -0.42
#  21   -5.30   -0.87    0.15   -0.74   -0.13    0.00    0.00      -6.88   -3.09   -0.53
#  22   11.48   -0.84    0.08    0.13    0.53    0.00    0.00      11.39    0.49    1.96
#  23    3.97   -1.47    0.46    1.72    0.12    0.00    0.00       4.80    6.12    0.41
#  24   -0.03   -0.28    0.01    0.06   -0.02    0.00    0.00      -0.25    0.37   -0.12
#  25   -0.02   -0.42    0.03   -0.06   -0.04    0.00    0.00      -0.50   -0.25   -0.16
#  26   -0.09   -0.22    0.01   -0.10   -0.02    0.00    0.00      -0.42   -0.77   -0.17
#  27   -0.14   -0.27    0.02   -0.08   -0.03    0.00    0.00      -0.51   -0.54   -0.17
#  28    1.47   -0.70    0.30    0.27   -0.15    0.00    0.00       1.18    0.49   -0.28
#  29    0.78   -0.61    0.26    0.07   -0.12    0.00    0.00       0.38    0.13   -0.24
#  30    1.72   -0.99    1.38    0.01   -0.15    0.00    0.00       1.98    0.02   -0.28
#  31    1.19   -0.47    0.10    0.15   -0.10    0.00    0.00       0.86    0.33   -0.23
#  32    0.07   -0.70    0.24    0.01   -0.17    0.00    0.00      -0.56    0.01   -0.28
#  33    0.62   -0.61    0.23    0.02   -0.16    0.00    0.00       0.11    0.04   -0.28
#  34    0.31   -1.23    1.83    0.25   -0.14    0.00    0.00       1.02    0.49   -0.28
#  35    0.18   -0.75    0.53    0.41   -0.10    0.00    0.00       0.27    0.73   -0.18
#  36    0.66   -0.72    0.33    0.57   -0.16    0.00    0.00       0.69    1.03   -0.28
#  37   -0.19   -0.44    0.14    0.04   -0.10    0.00    0.00      -0.55    0.12   -0.28
#  38   -1.36   -0.16    0.01   -0.26   -0.04    0.00    0.00      -1.81   -1.45   -0.21
#  39    2.45   -0.52    0.39   -0.41   -0.11    0.00    0.00       1.80   -1.06   -0.28
#  40    0.19    0.00    0.00    0.10    0.01    0.00    0.00       0.30    2.18    0.32
#  41   -0.42    0.00    0.00    0.08    0.04    0.00    0.00      -0.31    1.20    0.58
#  42   -5.36   -0.02    0.00    0.19    0.13    0.00    0.00      -5.06    0.89    0.59
#  43   -7.56   -0.02    0.00    0.03    0.10    0.00    0.00      -7.45    0.17    0.60
#  44    0.05   -0.08    0.00    0.00   -0.02    0.00    0.00      -0.04    0.05   -0.28
#  45    0.03   -0.25    0.11    0.09   -0.05    0.00    0.00      -0.05    0.53   -0.28
#  46   -0.04   -0.18    0.01   -0.01   -0.05    0.00    0.00      -0.26   -0.03   -0.28
#  47    0.06   -0.05    0.00    0.02   -0.01    0.00    0.00       0.03    0.43   -0.20
#  48    0.05   -0.13    0.01    0.12   -0.04    0.00    0.00       0.01    0.87   -0.28
#  49    0.04   -0.04    0.00    0.01   -0.01    0.00    0.00      -0.01    0.19   -0.28
#  50    0.09   -0.04    0.00    0.00   -0.01    0.00    0.00       0.04    0.00   -0.28
#  51    0.11   -0.06    0.00    0.05   -0.02    0.00    0.00       0.08    0.76   -0.28
#  52    0.03   -0.17    0.02    0.05   -0.04    0.00    0.00      -0.11    0.29   -0.20

@<TRIPOS>MOLECULE
             1569       100
   52    54     0     0     0



@<TRIPOS>ATOM
      1 C1         16.3882    16.1581    64.2207 C.3        1          -0.1829
      2 C2         17.4277    15.3693    65.0195 C.3        1           0.0750
      3 C3         16.7381    14.6422    66.1756 C.3        1          -0.1503
      4 O1         18.0601    14.4139    64.1654 O.3        1          -0.3051
      5 C4         19.4050    14.5221    64.0085 C.ar       1           0.1555
      6 C5         20.2319    13.4569    64.3808 C.ar       1          -0.1937
      7 C6         21.5812    13.5394    64.2347 C.ar       1          -0.0482
      8 C7         22.1573    14.7064    63.7031 C.ar       1          -0.1370
      9 C8         23.5482    14.8201    63.5400 C.ar       1          -0.0088
     10 C9         24.0482    16.0008    63.0087 C.ar       1          -0.0890
     11 C10        23.1615    17.0306    62.6556 C.ar       1           0.1714
     12 N1         21.8684    16.9056    62.8157 N.ar       1          -0.4748
     13 C11        21.3275    15.7915    63.3223 C.ar       1           0.1724
     14 C12        19.9369    15.6758    63.4800 C.ar       1          -0.1471
     15 C13        25.5077    16.1736    62.8158 C.2        1           0.1819
     16 N2         26.4404    15.2944    63.0970 N.2        1          -0.2771
     17 N3         27.6919    15.8259    62.7750 N.pl3      1          -0.3790
     18 C14        27.5428    17.0699    62.2790 C.2        1           0.4181
     19 N4         28.5557    17.9044    61.8526 N.pl3      1          -0.8439
     20 C15        26.1805    17.3577    62.2687 C.2        1          -0.3646
     21 C16        25.5459    18.5960    61.8071 C.2        1           0.6095
     22 N5         25.1654    18.7190    60.5199 N.am       1          -0.8476
     23 O2         25.3629    19.5131    62.5860 O.2        1          -0.5384
     24 C17        28.9721    15.1356    62.9506 C.3        1           0.1780
     25 C18        28.7254    13.7455    63.5400 C.3        1          -0.1406
     26 C19        29.6679    14.9986    61.5948 C.3        1          -0.1653
     27 C20        29.8602    15.9420    63.9002 C.3        1          -0.1672
     28 H1         16.8795    16.6761    63.3969 H          1           0.0741
     29 H2         15.6388    15.4733    63.8237 H          1           0.0632
     30 H3         15.9058    16.8868    64.8720 H          1           0.0698
     31 H4         18.1771    16.0542    65.4164 H          1           0.0754
     32 H5         17.4787    14.0802    66.7447 H          1           0.0688
     33 H6         16.2558    15.3710    66.8270 H          1           0.0663
     34 H7         15.9887    13.9575    65.7788 H          1           0.0786
     35 H8         19.7934    12.5586    64.7897 H          1           0.1378
     36 H9         22.2089    12.7105    64.5266 H          1           0.1364
     37 H10        24.2088    14.0128    63.8201 H          1           0.1445
     38 H11        23.5557    17.9473    62.2426 H          1           0.1672
     39 H12        19.2884    16.4900    63.1915 H          1           0.1445
     40 H13        29.4784    17.6085    61.8956 H          1           0.4040
     41 H14        28.3449    18.7870    61.5095 H          1           0.4174
     42 H15        25.3114    17.9883    59.8991 H          1           0.4014
     43 H16        24.7456    19.5383    60.2145 H          1           0.4016
     44 H17        29.6779    13.2319    63.6708 H          1           0.0703
     45 H18        28.2298    13.8432    64.5060 H          1           0.0737
     46 H19        28.0926    13.1712    62.8634 H          1           0.0710
     47 H20        30.6204    14.4850    61.7253 H          1           0.0608
     48 H21        29.0351    14.4240    60.9182 H          1           0.0847
     49 H22        29.8435    15.9890    61.1748 H          1           0.0701
     50 H23        30.8127    15.4284    64.0310 H          1           0.0710
     51 H24        30.0362    16.9323    63.4802 H          1           0.0847
     52 H25        29.3648    16.0399    64.8662 H          1           0.0611
@<TRIPOS>BOND
     1    1    2 1
     2    1   28 1
     3    1   29 1
     4    1   30 1
     5    2    3 1
     6    2    4 1
     7    2   31 1
     8    3   32 1
     9    3   33 1
    10    3   34 1
    11    4    5 1
    12    5   14 ar
    13    5    6 ar
    14    6    7 ar
    15    6   35 1
    16    7    8 ar
    17    7   36 1
    18    8   13 ar
    19    8    9 ar
    20    9   10 ar
    21    9   37 1
    22   10   11 ar
    23   10   15 1
    24   11   12 ar
    25   11   38 1
    26   12   13 ar
    27   13   14 ar
    28   14   39 1
    29   15   20 1
    30   15   16 2
    31   16   17 1
    32   17   18 1
    33   17   24 1
    34   18   19 1
    35   18   20 2
    36   19   40 1
    37   19   41 1
    38   20   21 1
    39   21   22 am
    40   21   23 2
    41   22   42 1
    42   22   43 1
    43   24   25 1
    44   24   26 1
    45   24   27 1
    46   25   44 1
    47   25   45 1
    48   25   46 1
    49   26   47 1
    50   26   48 1
    51   26   49 1
    52   27   50 1
    53   27   51 1
    54   27   52 1
##########                 Name:                 1569
##########          Protonation:                  100
##########               SMILES:   CC(C)Oc1ccc2cc(cnc2c1)c3c(c(n(n3)C(C)(C)C)N)C(=O)N
##########            Long Name:   5-amino-1-tert-butyl-3-(7-isopropoxy-3-quinolyl)pyrazole-4-carboxamide
##########          FlexRecCode: 1
##########               Number:                  192
##########   Ligand Source File: /raid1/people/rgc/Examples/tdt/part3/ligand22set/build/ligand22set-0000001.db2.g
##########           GlobalRank: 21
##########                 Rank:                    4
##########               Setnum:                   91
##########             Matchnum:                12533
##########                Cloud:                    1
##########        Electrostatic:             1.491120
##########        Van der Waals:           -28.736458
##########  Ligand Polar Desolv:             5.211537
########## Ligand Apolar Desolv:            -2.361238
##########      Internal Energy:             0.000000
##########      Receptor Energy: 0.0
########## Receptor Desolvation:             0.000000
########## Receptor Hydrophobic:             0.000000
##########         Total Energy: -24.4
##########        Ligand Charge:             0.000000
##########            Arbitrary:    +999.9990
##########     heavy atom count:   27
##########           pose count:   10
##########        Ligand Energy:             0.000000
# num electro vdwattr vdwrepu polsolv apolsol rdesolv rhydroe totalscore fullpol fullapo
#   1   -3.40   -1.82    0.63   -0.23   -0.11    0.00    0.00      -4.93   -0.38   -0.18
#   2    1.02   -1.31    0.19    0.04   -0.08    0.00    0.00      -0.14    0.06   -0.13
#   3   -1.00   -1.75    0.40   -0.15   -0.12    0.00    0.00      -2.62   -0.24   -0.19
#   4   -2.87   -1.75    0.44    0.68    0.51    0.00    0.00      -3.00    1.16    0.86
#   5    1.00   -1.61    0.22   -0.35   -0.18    0.00    0.00      -0.92   -0.61   -0.31
#   6   -0.73   -2.02    0.33   -0.04   -0.24    0.00    0.00      -2.69   -0.06   -0.38
#   7   -0.15   -2.38    0.56   -0.02   -0.28    0.00    0.00      -2.27   -0.04   -0.46
#   8   -0.10   -1.86    0.52    0.26   -0.20    0.00    0.00      -1.37    0.53   -0.40
#   9    0.02   -1.94    0.51   -0.02   -0.20    0.00    0.00      -1.62   -0.04   -0.45
#  10    0.25   -1.54    0.34    0.22   -0.15    0.00    0.00      -0.88    0.58   -0.40
#  11   -0.63   -1.56    0.35   -0.50   -0.34    0.00    0.00      -2.68   -1.35   -0.91
#  12    0.65   -1.39    0.16    2.15    0.83    0.00    0.00       2.40    5.14    1.98
#  13    0.30   -1.58    0.37   -0.46   -0.32    0.00    0.00      -1.70   -1.06   -0.73
#  14   -0.95   -1.66    0.35    0.66   -0.22    0.00    0.00      -1.82    1.41   -0.47
#  15   -0.56   -1.30    0.26   -0.26   -0.24    0.00    0.00      -2.11   -0.83   -0.77
#  16    0.38   -1.41    0.41    0.39    0.35    0.00    0.00       0.13    1.19    1.08
#  17    0.20   -0.66    0.05    0.11    0.21    0.00    0.00      -0.09    0.49    0.94
#  18   -0.45   -0.51    0.04   -0.11   -0.35    0.00    0.00      -1.38   -0.62   -1.98
#  19   -0.23   -0.26    0.01   -0.21    0.09    0.00    0.00      -0.60   -2.00    0.83
#  20    1.31   -0.84    0.18    0.37   -0.09    0.00    0.00       0.92    1.73   -0.42
#  21   -3.29   -0.68    0.10   -0.61   -0.10    0.00    0.00      -4.58   -3.09   -0.53
#  22    5.24   -1.45    1.06    0.10    0.41    0.00    0.00       5.37    0.49    1.96
#  23    3.31   -0.54    0.02    1.57    0.10    0.00    0.00       4.46    6.12    0.41
#  24    0.12   -0.31    0.02    0.07   -0.02    0.00    0.00      -0.13    0.37   -0.12
#  25   -0.14   -0.54    0.09   -0.07   -0.04    0.00    0.00      -0.70   -0.25   -0.16
#  26   -0.14   -0.30    0.02   -0.11   -0.03    0.00    0.00      -0.56   -0.77   -0.17
#  27   -0.21   -0.25    0.01   -0.10   -0.03    0.00    0.00      -0.58   -0.54   -0.17
#  28    1.61   -0.79    0.45    0.27   -0.16    0.00    0.00       1.39    0.49   -0.28
#  29    0.82   -0.56    0.24    0.06   -0.12    0.00    0.00       0.44    0.13   -0.24
#  30    1.69   -0.91    1.21    0.01   -0.14    0.00    0.00       1.86    0.02   -0.28
#  31    1.26   -0.56    0.24    0.14   -0.10    0.00    0.00       0.98    0.33   -0.23
#  32    0.32   -0.72    0.54    0.01   -0.15    0.00    0.00       0.00    0.01   -0.28
#  33    0.52   -0.56    0.10    0.02   -0.16    0.00    0.00      -0.08    0.04   -0.28
#  34    0.25   -1.04    1.30    0.25   -0.14    0.00    0.00       0.61    0.49   -0.28
#  35    0.24   -0.54    0.11    0.43   -0.11    0.00    0.00       0.13    0.73   -0.18
#  36    0.85   -0.96    0.64    0.59   -0.16    0.00    0.00       0.96    1.03   -0.28
#  37   -0.77   -0.62    0.50    0.05   -0.11    0.00    0.00      -0.94    0.12   -0.28
#  38   -1.12   -0.37    0.15   -0.35   -0.05    0.00    0.00      -1.73   -1.45   -0.21
#  39    1.83   -0.47    0.25   -0.39   -0.10    0.00    0.00       1.12   -1.06   -0.28
#  40    0.35    0.00    0.00    0.07    0.01    0.00    0.00       0.43    2.18    0.32
#  41    0.11    0.00    0.00    0.05    0.02    0.00    0.00       0.18    1.20    0.58
#  42   -3.53   -0.13    0.05    0.21    0.14    0.00    0.00      -3.26    0.89    0.59
#  43   -2.54   -0.01    0.00    0.02    0.08    0.00    0.00      -2.45    0.17    0.60
#  44    0.08   -0.10    0.00    0.00   -0.03    0.00    0.00      -0.04    0.05   -0.28
#  45    0.10   -0.41    0.52    0.13   -0.07    0.00    0.00       0.26    0.53   -0.28
#  46    0.03   -0.20    0.02   -0.01   -0.06    0.00    0.00      -0.22   -0.03   -0.28
#  47    0.06   -0.06    0.00    0.02   -0.01    0.00    0.00       0.01    0.43   -0.20
#  48    0.05   -0.25    0.08    0.15   -0.05    0.00    0.00      -0.02    0.87   -0.28
#  49    0.07   -0.05    0.00    0.01   -0.01    0.00    0.00       0.02    0.19   -0.28
#  50    0.09   -0.05    0.00    0.00   -0.02    0.00    0.00       0.02    0.00   -0.28
#  51    0.10   -0.04    0.00    0.03   -0.01    0.00    0.00       0.08    0.76   -0.28
#  52    0.07   -0.15    0.01    0.06   -0.04    0.00    0.00      -0.04    0.29   -0.20

@<TRIPOS>MOLECULE
             1569       100
   52    54     0     0     0



@<TRIPOS>ATOM
      1 C1         16.6422    16.1705    64.3587 C.3        1          -0.1829
      2 C2         17.9591    15.5109    64.7726 C.3        1           0.0750
      3 C3         17.7120    14.5818    65.9627 C.3        1          -0.1503
      4 O1         18.4776    14.7539    63.6770 O.3        1          -0.3051
      5 C4         19.8279    14.6309    63.5969 C.ar       1           0.1555
      6 C5         20.4093    13.3590    63.6348 C.ar       1          -0.1937
      7 C6         21.7582    13.2078    63.5569 C.ar       1          -0.0482
      8 C7         22.5833    14.3397    63.4361 C.ar       1          -0.1370
      9 C8         23.9803    14.2142    63.3531 C.ar       1          -0.0088
     10 C9         24.7332    15.3742    63.2349 C.ar       1          -0.0890
     11 C10        24.0853    16.6193    63.2025 C.ar       1           0.1714
     12 N1         22.7823    16.7154    63.2817 N.ar       1          -0.4748
     13 C11        22.0036    15.6332    63.3964 C.ar       1           0.1724
     14 C12        20.6071    15.7584    63.4737 C.ar       1          -0.1471
     15 C13        26.2109    15.2990    63.1441 C.2        1           0.1819
     16 N2         26.9784    14.3764    63.6748 N.2        1          -0.2771
     17 N3         28.3139    14.6508    63.3688 N.pl3      1          -0.3790
     18 C14        28.3883    15.7735    62.6274 C.2        1           0.4181
     19 N4         29.5414    16.3526    62.1384 N.pl3      1          -0.8439
     20 C15        27.0898    16.2391    62.4382 C.2        1          -0.3646
     21 C16        26.6825    17.4307    61.6876 C.2        1           0.6095
     22 N5         26.5872    18.6209    62.3128 N.am       1          -0.8476
     23 O2         26.4302    17.3451    60.5001 O.2        1          -0.5384
     24 C17        29.4595    13.8410    63.7908 C.3        1           0.1780
     25 C18        28.9665    12.6512    64.6166 C.3        1          -0.1406
     26 C19        30.2058    13.3309    62.5563 C.3        1          -0.1653
     27 C20        30.4028    14.6954    64.6400 C.3        1          -0.1672
     28 H1         16.8182    16.8325    63.5107 H          1           0.0741
     29 H2         15.9236    15.4013    64.0759 H          1           0.0632
     30 H3         16.2466    16.7479    65.1943 H          1           0.0698
     31 H4         18.6777    16.2801    65.0552 H          1           0.0754
     32 H5         18.6503    14.1117    66.2577 H          1           0.0688
     33 H6         17.3166    15.1591    66.7985 H          1           0.0663
     34 H7         16.9935    13.8126    65.6803 H          1           0.0786
     35 H8         19.7791    12.4868    63.7275 H          1           0.1378
     36 H9         22.1949    12.2205    63.5880 H          1           0.1364
     37 H10        24.4542    13.2442    63.3806 H          1           0.1445
     38 H11        24.6758    17.5189    63.1106 H          1           0.1672
     39 H12        20.1470    16.7350    63.4406 H          1           0.1445
     40 H13        30.4032    15.9470    62.3214 H          1           0.4040
     41 H14        29.4901    17.1655    61.6116 H          1           0.4174
     42 H15        26.7881    18.6891    63.2592 H          1           0.4014
     43 H16        26.3177    19.4093    61.8161 H          1           0.4016
     44 H17        29.8189    12.0487    64.9306 H          1           0.0703
     45 H18        28.4350    13.0147    65.4961 H          1           0.0737
     46 H19        28.2945    12.0425    64.0116 H          1           0.0710
     47 H20        31.0582    12.7284    62.8701 H          1           0.0608
     48 H21        29.5338    12.7221    61.9513 H          1           0.0847
     49 H22        30.5568    14.1786    61.9680 H          1           0.0701
     50 H23        31.2552    14.0930    64.9540 H          1           0.0710
     51 H24        30.7541    15.5430    64.0516 H          1           0.0847
     52 H25        29.8713    15.0590    65.5194 H          1           0.0611
@<TRIPOS>BOND
     1    1    2 1
     2    1   28 1
     3    1   29 1
     4    1   30 1
     5    2    3 1
     6    2    4 1
     7    2   31 1
     8    3   32 1
     9    3   33 1
    10    3   34 1
    11    4    5 1
    12    5   14 ar
    13    5    6 ar
    14    6    7 ar
    15    6   35 1
    16    7    8 ar
    17    7   36 1
    18    8   13 ar
    19    8    9 ar
    20    9   10 ar
    21    9   37 1
    22   10   11 ar
    23   10   15 1
    24   11   12 ar
    25   11   38 1
    26   12   13 ar
    27   13   14 ar
    28   14   39 1
    29   15   20 1
    30   15   16 2
    31   16   17 1
    32   17   18 1
    33   17   24 1
    34   18   19 1
    35   18   20 2
    36   19   40 1
    37   19   41 1
    38   20   21 1
    39   21   22 am
    40   21   23 2
    41   22   42 1
    42   22   43 1
    43   24   25 1
    44   24   26 1
    45   24   27 1
    46   25   44 1
    47   25   45 1
    48   25   46 1
    49   26   47 1
    50   26   48 1
    51   26   49 1
    52   27   50 1
    53   27   51 1
    54   27   52 1
##########                 Name:                 1569
##########          Protonation:                  100
##########               SMILES:   CC(C)Oc1ccc2cc(cnc2c1)c3c(c(n(n3)C(C)(C)C)N)C(=O)N
##########            Long Name:   5-amino-1-tert-butyl-3-(7-isopropoxy-3-quinolyl)pyrazole-4-carboxamide
##########          FlexRecCode: 1
##########               Number:                  192
##########   Ligand Source File: /raid1/people/rgc/Examples/tdt/part3/ligand22set/build/ligand22set-0000001.db2.g
##########           GlobalRank: 21
##########                 Rank:                    5
##########               Setnum:                   33
##########             Matchnum:                12533
##########                Cloud:                    1
##########        Electrostatic:             2.068773
##########        Van der Waals:           -28.967634
##########  Ligand Polar Desolv:             4.900450
########## Ligand Apolar Desolv:            -2.264328
##########      Internal Energy:             0.000000
##########      Receptor Energy: 0.0
########## Receptor Desolvation:             0.000000
########## Receptor Hydrophobic:             0.000000
##########         Total Energy: -24.26
##########        Ligand Charge:             0.000000
##########            Arbitrary:    +999.9990
##########     heavy atom count:   27
##########           pose count:   10
##########        Ligand Energy:             0.000000
# num electro vdwattr vdwrepu polsolv apolsol rdesolv rhydroe totalscore fullpol fullapo
#   1   -3.40   -1.82    0.63   -0.23   -0.11    0.00    0.00      -4.93   -0.38   -0.18
#   2    1.02   -1.31    0.19    0.04   -0.08    0.00    0.00      -0.14    0.06   -0.13
#   3   -1.00   -1.75    0.40   -0.15   -0.12    0.00    0.00      -2.62   -0.24   -0.19
#   4   -2.87   -1.75    0.44    0.68    0.51    0.00    0.00      -3.00    1.16    0.86
#   5    1.00   -1.61    0.22   -0.35   -0.18    0.00    0.00      -0.92   -0.61   -0.31
#   6   -0.73   -2.02    0.33   -0.04   -0.24    0.00    0.00      -2.69   -0.06   -0.38
#   7   -0.15   -2.38    0.56   -0.02   -0.28    0.00    0.00      -2.27   -0.04   -0.46
#   8   -0.10   -1.86    0.52    0.26   -0.20    0.00    0.00      -1.37    0.53   -0.40
#   9    0.02   -1.94    0.51   -0.02   -0.20    0.00    0.00      -1.62   -0.04   -0.45
#  10    0.25   -1.54    0.34    0.22   -0.15    0.00    0.00      -0.88    0.58   -0.40
#  11   -0.63   -1.56    0.35   -0.50   -0.34    0.00    0.00      -2.68   -1.35   -0.91
#  12    0.65   -1.39    0.16    2.15    0.83    0.00    0.00       2.40    5.14    1.98
#  13    0.30   -1.58    0.37   -0.46   -0.32    0.00    0.00      -1.70   -1.06   -0.73
#  14   -0.95   -1.66    0.35    0.66   -0.22    0.00    0.00      -1.82    1.41   -0.47
#  15   -0.56   -1.30    0.26   -0.26   -0.24    0.00    0.00      -2.11   -0.83   -0.77
#  16    0.38   -1.41    0.41    0.39    0.35    0.00    0.00       0.13    1.19    1.08
#  17    0.20   -0.66    0.05    0.11    0.21    0.00    0.00      -0.09    0.49    0.94
#  18   -0.45   -0.51    0.04   -0.11   -0.35    0.00    0.00      -1.38   -0.62   -1.98
#  19   -0.23   -0.26    0.01   -0.21    0.09    0.00    0.00      -0.60   -2.00    0.83
#  20    1.31   -0.84    0.18    0.37   -0.09    0.00    0.00       0.92    1.73   -0.42
#  21   -3.29   -0.68    0.10   -0.61   -0.10    0.00    0.00      -4.58   -3.09   -0.53
#  22    5.32   -0.68    0.03    0.13    0.52    0.00    0.00       5.32    0.49    1.96
#  23    3.36   -1.15    0.60    1.25    0.08    0.00    0.00       4.13    6.12    0.41
#  24    0.12   -0.31    0.02    0.07   -0.02    0.00    0.00      -0.13    0.37   -0.12
#  25   -0.14   -0.54    0.09   -0.07   -0.04    0.00    0.00      -0.70   -0.25   -0.16
#  26   -0.14   -0.30    0.02   -0.11   -0.03    0.00    0.00      -0.56   -0.77   -0.17
#  27   -0.21   -0.25    0.01   -0.10   -0.03    0.00    0.00      -0.58   -0.54   -0.17
#  28    1.61   -0.79    0.45    0.27   -0.16    0.00    0.00       1.39    0.49   -0.28
#  29    0.82   -0.56    0.24    0.06   -0.12    0.00    0.00       0.44    0.13   -0.24
#  30    1.69   -0.91    1.21    0.01   -0.14    0.00    0.00       1.86    0.02   -0.28
#  31    1.26   -0.56    0.24    0.14   -0.10    0.00    0.00       0.98    0.33   -0.23
#  32    0.32   -0.72    0.54    0.01   -0.15    0.00    0.00       0.00    0.01   -0.28
#  33    0.52   -0.56    0.10    0.02   -0.16    0.00    0.00      -0.08    0.04   -0.28
#  34    0.25   -1.04    1.30    0.25   -0.14    0.00    0.00       0.61    0.49   -0.28
#  35    0.24   -0.54    0.11    0.43   -0.11    0.00    0.00       0.13    0.73   -0.18
#  36    0.85   -0.96    0.64    0.59   -0.16    0.00    0.00       0.96    1.03   -0.28
#  37   -0.77   -0.62    0.50    0.05   -0.11    0.00    0.00      -0.94    0.12   -0.28
#  38   -1.12   -0.37    0.15   -0.35   -0.05    0.00    0.00      -1.73   -1.45   -0.21
#  39    1.83   -0.47    0.25   -0.39   -0.10    0.00    0.00       1.12   -1.06   -0.28
#  40    0.35    0.00    0.00    0.07    0.01    0.00    0.00       0.43    2.18    0.32
#  41    0.11    0.00    0.00    0.05    0.02    0.00    0.00       0.18    1.20    0.58
#  42   -1.69   -0.01    0.00    0.18    0.12    0.00    0.00      -1.40    0.89    0.59
#  43   -3.93   -0.01    0.00    0.03    0.10    0.00    0.00      -3.81    0.17    0.60
#  44    0.08   -0.10    0.00    0.00   -0.03    0.00    0.00      -0.04    0.05   -0.28
#  45    0.10   -0.41    0.52    0.13   -0.07    0.00    0.00       0.26    0.53   -0.28
#  46    0.03   -0.20    0.02   -0.01   -0.06    0.00    0.00      -0.22   -0.03   -0.28
#  47    0.06   -0.06    0.00    0.02   -0.01    0.00    0.00       0.01    0.43   -0.20
#  48    0.05   -0.25    0.08    0.15   -0.05    0.00    0.00      -0.02    0.87   -0.28
#  49    0.07   -0.05    0.00    0.01   -0.01    0.00    0.00       0.02    0.19   -0.28
#  50    0.09   -0.05    0.00    0.00   -0.02    0.00    0.00       0.02    0.00   -0.28
#  51    0.10   -0.04    0.00    0.03   -0.01    0.00    0.00       0.08    0.76   -0.28
#  52    0.07   -0.15    0.01    0.06   -0.04    0.00    0.00      -0.04    0.29   -0.20

@<TRIPOS>MOLECULE
             1569       100
   52    54     0     0     0



@<TRIPOS>ATOM
      1 C1         16.6422    16.1705    64.3587 C.3        1          -0.1829
      2 C2         17.9591    15.5109    64.7726 C.3        1           0.0750
      3 C3         17.7120    14.5818    65.9627 C.3        1          -0.1503
      4 O1         18.4776    14.7539    63.6770 O.3        1          -0.3051
      5 C4         19.8279    14.6309    63.5969 C.ar       1           0.1555
      6 C5         20.4093    13.3590    63.6348 C.ar       1          -0.1937
      7 C6         21.7582    13.2078    63.5569 C.ar       1          -0.0482
      8 C7         22.5833    14.3397    63.4361 C.ar       1          -0.1370
      9 C8         23.9803    14.2142    63.3531 C.ar       1          -0.0088
     10 C9         24.7332    15.3742    63.2349 C.ar       1          -0.0890
     11 C10        24.0853    16.6193    63.2025 C.ar       1           0.1714
     12 N1         22.7823    16.7154    63.2817 N.ar       1          -0.4748
     13 C11        22.0036    15.6332    63.3964 C.ar       1           0.1724
     14 C12        20.6071    15.7584    63.4737 C.ar       1          -0.1471
     15 C13        26.2109    15.2990    63.1441 C.2        1           0.1819
     16 N2         26.9784    14.3764    63.6748 N.2        1          -0.2771
     17 N3         28.3139    14.6508    63.3688 N.pl3      1          -0.3790
     18 C14        28.3883    15.7735    62.6274 C.2        1           0.4181
     19 N4         29.5414    16.3526    62.1384 N.pl3      1          -0.8439
     20 C15        27.0898    16.2391    62.4382 C.2        1          -0.3646
     21 C16        26.6825    17.4307    61.6876 C.2        1           0.6095
     22 N5         26.4033    17.3359    60.3725 N.am       1          -0.8476
     23 O2         26.5966    18.5055    62.2521 O.2        1          -0.5384
     24 C17        29.4595    13.8410    63.7908 C.3        1           0.1780
     25 C18        28.9665    12.6512    64.6166 C.3        1          -0.1406
     26 C19        30.2058    13.3309    62.5563 C.3        1          -0.1653
     27 C20        30.4028    14.6954    64.6400 C.3        1          -0.1672
     28 H1         16.8182    16.8325    63.5107 H          1           0.0741
     29 H2         15.9236    15.4013    64.0759 H          1           0.0632
     30 H3         16.2466    16.7479    65.1943 H          1           0.0698
     31 H4         18.6777    16.2801    65.0552 H          1           0.0754
     32 H5         18.6503    14.1117    66.2577 H          1           0.0688
     33 H6         17.3166    15.1591    66.7985 H          1           0.0663
     34 H7         16.9935    13.8126    65.6803 H          1           0.0786
     35 H8         19.7791    12.4868    63.7275 H          1           0.1378
     36 H9         22.1949    12.2205    63.5880 H          1           0.1364
     37 H10        24.4542    13.2442    63.3806 H          1           0.1445
     38 H11        24.6758    17.5189    63.1106 H          1           0.1672
     39 H12        20.1470    16.7350    63.4406 H          1           0.1445
     40 H13        30.4032    15.9470    62.3214 H          1           0.4040
     41 H14        29.4901    17.1655    61.6116 H          1           0.4174
     42 H15        26.4718    16.4794    59.9226 H          1           0.4014
     43 H16        26.1338    18.1244    59.8759 H          1           0.4016
     44 H17        29.8189    12.0487    64.9306 H          1           0.0703
     45 H18        28.4350    13.0147    65.4961 H          1           0.0737
     46 H19        28.2945    12.0425    64.0116 H          1           0.0710
     47 H20        31.0582    12.7284    62.8701 H          1           0.0608
     48 H21        29.5338    12.7221    61.9513 H          1           0.0847
     49 H22        30.5568    14.1786    61.9680 H          1           0.0701
     50 H23        31.2552    14.0930    64.9540 H          1           0.0710
     51 H24        30.7541    15.5430    64.0516 H          1           0.0847
     52 H25        29.8713    15.0590    65.5194 H          1           0.0611
@<TRIPOS>BOND
     1    1    2 1
     2    1   28 1
     3    1   29 1
     4    1   30 1
     5    2    3 1
     6    2    4 1
     7    2   31 1
     8    3   32 1
     9    3   33 1
    10    3   34 1
    11    4    5 1
    12    5   14 ar
    13    5    6 ar
    14    6    7 ar
    15    6   35 1
    16    7    8 ar
    17    7   36 1
    18    8   13 ar
    19    8    9 ar
    20    9   10 ar
    21    9   37 1
    22   10   11 ar
    23   10   15 1
    24   11   12 ar
    25   11   38 1
    26   12   13 ar
    27   13   14 ar
    28   14   39 1
    29   15   20 1
    30   15   16 2
    31   16   17 1
    32   17   18 1
    33   17   24 1
    34   18   19 1
    35   18   20 2
    36   19   40 1
    37   19   41 1
    38   20   21 1
    39   21   22 am
    40   21   23 2
    41   22   42 1
    42   22   43 1
    43   24   25 1
    44   24   26 1
    45   24   27 1
    46   25   44 1
    47   25   45 1
    48   25   46 1
    49   26   47 1
    50   26   48 1
    51   26   49 1
    52   27   50 1
    53   27   51 1
    54   27   52 1
##########                 Name:                 1569
##########          Protonation:                  100
##########               SMILES:   CC(C)Oc1ccc2cc(cnc2c1)c3c(c(n(n3)C(C)(C)C)N)C(=O)N
##########            Long Name:   5-amino-1-tert-butyl-3-(7-isopropoxy-3-quinolyl)pyrazole-4-carboxamide
##########          FlexRecCode: 1
##########               Number:                  193
##########   Ligand Source File: /raid1/people/rgc/Examples/tdt/part3/ligand22set/build/ligand22set-0000001.db2.g
##########           GlobalRank: 22
##########                 Rank:                    4
##########               Setnum:                   14
##########             Matchnum:                20441
##########                Cloud:                    1
##########        Electrostatic:            -8.739543
##########        Van der Waals:           -17.237846
##########  Ligand Polar Desolv:             8.569894
########## Ligand Apolar Desolv:            -1.621303
##########      Internal Energy:             0.000000
##########      Receptor Energy: 0.0
########## Receptor Desolvation:             0.000000
########## Receptor Hydrophobic:             0.000000
##########         Total Energy: -19.03
##########        Ligand Charge:             0.000000
##########            Arbitrary:    +999.9990
##########     heavy atom count:   27
##########           pose count:   10
##########        Ligand Energy:             0.000000
# num electro vdwattr vdwrepu polsolv apolsol rdesolv rhydroe totalscore fullpol fullapo
#   1   -1.26   -1.61    0.53   -0.24   -0.12    0.00    0.00      -2.70   -0.38   -0.18
#   2    0.65   -1.59    0.83    0.04   -0.08    0.00    0.00      -0.14    0.06   -0.13
#   3   -1.08   -2.51    1.34   -0.15   -0.12    0.00    0.00      -2.52   -0.24   -0.19
#   4   -3.01   -1.74    0.34    0.75    0.56    0.00    0.00      -3.10    1.16    0.86
#   5    1.76   -2.85    2.45   -0.38   -0.19    0.00    0.00       0.78   -0.61   -0.31
#   6   -1.46   -3.24    1.76   -0.04   -0.24    0.00    0.00      -3.21   -0.06   -0.38
#   7   -0.31   -3.06    1.20   -0.03   -0.30    0.00    0.00      -2.49   -0.04   -0.46
#   8   -1.60   -2.38    0.83    0.33   -0.25    0.00    0.00      -3.07    0.53   -0.40
#   9   -0.09   -1.91    0.33   -0.02   -0.26    0.00    0.00      -1.96   -0.04   -0.45
#  10   -0.94   -1.73    0.25    0.31   -0.22    0.00    0.00      -2.32    0.58   -0.40
#  11    2.02   -3.35    2.33   -0.75   -0.50    0.00    0.00      -0.25   -1.35   -0.91
#  12   -6.21   -4.41    3.40    3.07    1.18    0.00    0.00      -2.97    5.14    1.98
#  13    2.50   -2.87    0.96   -0.63   -0.43    0.00    0.00      -0.47   -1.06   -0.73
#  14   -1.79   -3.29    1.65    0.84   -0.28    0.00    0.00      -2.87    1.41   -0.47
#  15    0.93   -1.63    0.44   -0.41   -0.38    0.00    0.00      -1.06   -0.83   -0.77
#  16   -0.61   -1.50    0.28    0.51    0.46    0.00    0.00      -0.86    1.19    1.08
#  17    0.53   -1.40    0.33    0.20    0.38    0.00    0.00       0.04    0.49    0.94
#  18   -0.28   -1.97    1.12   -0.29   -0.92    0.00    0.00      -2.34   -0.62   -1.98
#  19    3.94   -2.77    1.94   -0.96    0.40    0.00    0.00       2.56   -2.00    0.83
#  20   -0.92   -2.04    1.16    0.98   -0.24    0.00    0.00      -1.06    1.73   -0.42
#  21    2.25   -2.73    0.66   -1.97   -0.34    0.00    0.00      -2.14   -3.09   -0.53
#  22   -2.52   -5.15    4.04    0.33    1.32    0.00    0.00      -1.98    0.49    1.96
#  23   -2.19   -3.86    1.88    4.05    0.27    0.00    0.00       0.14    6.12    0.41
#  24   -0.85   -0.73    0.07    0.13   -0.04    0.00    0.00      -1.42    0.37   -0.12
#  25    1.02   -0.77    0.07   -0.09   -0.06    0.00    0.00       0.16   -0.25   -0.16
#  26    0.60   -2.37    2.51   -0.28   -0.06    0.00    0.00       0.39   -0.77   -0.17
#  27    1.12   -0.71    0.12   -0.18   -0.06    0.00    0.00       0.28   -0.54   -0.17
#  28    0.53   -0.97    0.98    0.26   -0.15    0.00    0.00       0.65    0.49   -0.28
#  29    0.40   -0.48    0.15    0.07   -0.13    0.00    0.00       0.01    0.13   -0.24
#  30    0.41   -0.37    0.05    0.01   -0.13    0.00    0.00      -0.04    0.02   -0.28
#  31    0.82   -1.12    4.25    0.15   -0.10    0.00    0.00       3.99    0.33   -0.23
#  32    0.51   -1.35    1.51    0.01   -0.17    0.00    0.00       0.51    0.01   -0.28
#  33    0.28   -0.84    0.45    0.02   -0.15    0.00    0.00      -0.23    0.04   -0.28
#  34    0.52   -1.36    3.06    0.27   -0.15    0.00    0.00       2.34    0.49   -0.28
#  35    0.54   -0.70    0.21    0.41   -0.10    0.00    0.00       0.35    0.73   -0.18
#  36    0.13   -0.69    0.23    0.63   -0.17    0.00    0.00       0.12    1.03   -0.28
#  37    1.05   -0.49    0.19    0.05   -0.12    0.00    0.00       0.67    0.12   -0.28
#  38    0.93   -0.88    1.11   -0.70   -0.10    0.00    0.00       0.36   -1.45   -0.21
#  39    0.74   -1.24    2.17   -0.60   -0.16    0.00    0.00       0.92   -1.06   -0.28
#  40   -2.09   -0.02    0.00    0.68    0.10    0.00    0.00      -1.34    2.18    0.32
#  41   -3.36   -0.13    0.04    0.57    0.28    0.00    0.00      -2.60    1.20    0.58
#  42    0.91   -0.10    0.01    0.58    0.39    0.00    0.00       1.79    0.89    0.59
#  43    0.54   -0.18    0.04    0.12    0.41    0.00    0.00       0.93    0.17    0.60
#  44   -0.62   -0.22    0.03    0.01   -0.05    0.00    0.00      -0.86    0.05   -0.28
#  45   -0.75   -0.16    0.01    0.10   -0.05    0.00    0.00      -0.86    0.53   -0.28
#  46   -0.31   -0.38    0.05   -0.01   -0.11    0.00    0.00      -0.76   -0.03   -0.28
#  47   -0.54   -1.28    5.01    0.12   -0.06    0.00    0.00       3.26    0.43   -0.20
#  48    0.03   -2.19   10.50    0.38   -0.12    0.00    0.00       8.60    0.87   -0.28
#  49   -0.13   -0.44    0.17    0.05   -0.08    0.00    0.00      -0.43    0.19   -0.28
#  50   -0.50   -0.13    0.00    0.00   -0.04    0.00    0.00      -0.66    0.00   -0.28
#  51   -0.42   -0.23    0.03    0.21   -0.08    0.00    0.00      -0.49    0.76   -0.28
#  52   -0.57   -0.42    0.24    0.08   -0.06    0.00    0.00      -0.72    0.29   -0.20

@<TRIPOS>MOLECULE
             1569       100
   52    54     0     0     0



@<TRIPOS>ATOM
      1 C1         11.4509    13.8067    65.0925 C.3        1          -0.1829
      2 C2         12.3415    14.8314    64.3871 C.3        1           0.0750
      3 C3         11.4656    15.8730    63.6881 C.3        1          -0.1503
      4 O1         13.1762    15.4794    65.3492 O.3        1          -0.3051
      5 C4         14.5187    15.3567    65.1829 C.ar       1           0.1555
      6 C5         15.2877    14.7605    66.1880 C.ar       1          -0.1937
      7 C6         16.6333    14.6259    66.0470 C.ar       1          -0.0482
      8 C7         17.2643    15.0888    64.8792 C.ar       1          -0.1370
      9 C8         18.6529    14.9627    64.7054 C.ar       1          -0.0088
     10 C9         19.2088    15.4415    63.5273 C.ar       1          -0.0890
     11 C10        18.3786    16.0287    62.5592 C.ar       1           0.1714
     12 N1         17.0868    16.1375    62.7400 N.ar       1          -0.4748
     13 C11        16.4934    15.6942    63.8544 C.ar       1           0.1724
     14 C12        15.1048    15.8152    64.0255 C.ar       1          -0.1471
     15 C13        20.6686    15.3341    63.2929 C.2        1           0.1819
     16 N2         21.5015    16.3287    63.0956 N.2        1          -0.2771
     17 N3         22.7918    15.8247    62.9131 N.pl3      1          -0.3790
     18 C14        22.7701    14.4800    62.9978 C.2        1           0.4181
     19 N4         23.8555    13.6375    62.8703 N.pl3      1          -0.8439
     20 C15        21.4548    14.0956    63.2444 C.2        1          -0.3646
     21 C16        20.9550    12.7283    63.4176 C.2        1           0.6095
     22 N5         20.5349    12.0239    62.3480 N.am       1          -0.8476
     23 O2         20.9194    12.2294    64.5271 O.2        1          -0.5384
     24 C17        23.9870    16.6353    62.6663 C.3        1           0.1780
     25 C18        23.6025    18.1158    62.6397 C.3        1          -0.1406
     26 C19        25.0066    16.3929    63.7811 C.3        1          -0.1653
     27 C20        24.6001    16.2432    61.3205 C.3        1          -0.1672
     28 H1         12.0749    13.0646    65.5905 H          1           0.0741
     29 H2         10.8290    14.3130    65.8308 H          1           0.0632
     30 H3         10.8142    13.3125    64.3587 H          1           0.0698
     31 H4         12.9634    14.3252    63.6487 H          1           0.0754
     32 H5         12.1001    16.6031    63.1854 H          1           0.0688
     33 H6         10.8289    15.3787    62.9541 H          1           0.0663
     34 H7         10.8437    16.3792    64.4262 H          1           0.0786
     35 H8         14.8070    14.4035    67.0869 H          1           0.1378
     36 H9         17.2161    14.1645    66.8306 H          1           0.1364
     37 H10        19.2695    14.5071    65.4662 H          1           0.1445
     38 H11        18.8162    16.3998    61.6442 H          1           0.1672
     39 H12        14.5005    16.2694    63.2542 H          1           0.1445
     40 H13        24.7376    14.0047    62.7031 H          1           0.4040
     41 H14        23.7363    12.6779    62.9479 H          1           0.4174
     42 H15        20.5632    12.4216    61.4638 H          1           0.4014
     43 H16        20.2042    11.1193    62.4626 H          1           0.4016
     44 H17        24.4918    18.7189    62.4561 H          1           0.0703
     45 H18        22.8762    18.2885    61.8454 H          1           0.0737
     46 H19        23.1657    18.3950    63.5985 H          1           0.0710
     47 H20        25.8958    16.9959    63.5976 H          1           0.0608
     48 H21        24.5698    16.6723    64.7400 H          1           0.0847
     49 H22        25.2803    15.3381    63.8001 H          1           0.0701
     50 H23        25.4894    16.8463    61.1368 H          1           0.0710
     51 H24        24.8741    15.1884    61.3395 H          1           0.0847
     52 H25        23.8738    16.4156    60.5262 H          1           0.0611
@<TRIPOS>BOND
     1    1    2 1
     2    1   28 1
     3    1   29 1
     4    1   30 1
     5    2    3 1
     6    2    4 1
     7    2   31 1
     8    3   32 1
     9    3   33 1
    10    3   34 1
    11    4    5 1
    12    5   14 ar
    13    5    6 ar
    14    6    7 ar
    15    6   35 1
    16    7    8 ar
    17    7   36 1
    18    8   13 ar
    19    8    9 ar
    20    9   10 ar
    21    9   37 1
    22   10   11 ar
    23   10   15 1
    24   11   12 ar
    25   11   38 1
    26   12   13 ar
    27   13   14 ar
    28   14   39 1
    29   15   20 1
    30   15   16 2
    31   16   17 1
    32   17   18 1
    33   17   24 1
    34   18   19 1
    35   18   20 2
    36   19   40 1
    37   19   41 1
    38   20   21 1
    39   21   22 am
    40   21   23 2
    41   22   42 1
    42   22   43 1
    43   24   25 1
    44   24   26 1
    45   24   27 1
    46   25   44 1
    47   25   45 1
    48   25   46 1
    49   26   47 1
    50   26   48 1
    51   26   49 1
    52   27   50 1
    53   27   51 1
    54   27   52 1
##########                 Name:                 1569
##########          Protonation:                  100
##########               SMILES:   CC(C)Oc1ccc2cc(cnc2c1)c3c(c(n(n3)C(C)(C)C)N)C(=O)N
##########            Long Name:   5-amino-1-tert-butyl-3-(7-isopropoxy-3-quinolyl)pyrazole-4-carboxamide
##########          FlexRecCode: 1
##########               Number:                  193
##########   Ligand Source File: /raid1/people/rgc/Examples/tdt/part3/ligand22set/build/ligand22set-0000001.db2.g
##########           GlobalRank: 22
##########                 Rank:                    5
##########               Setnum:                   58
##########             Matchnum:                 3248
##########                Cloud:                    1
##########        Electrostatic:             1.680232
##########        Van der Waals:           -24.719034
##########  Ligand Polar Desolv:             6.081067
########## Ligand Apolar Desolv:            -1.532879
##########      Internal Energy:             0.000000
##########      Receptor Energy: 0.0
########## Receptor Desolvation:             0.000000
########## Receptor Hydrophobic:             0.000000
##########         Total Energy: -18.49
##########        Ligand Charge:             0.000000
##########            Arbitrary:    +999.9990
##########     heavy atom count:   27
##########           pose count:   10
##########        Ligand Energy:             0.000000
# num electro vdwattr vdwrepu polsolv apolsol rdesolv rhydroe totalscore fullpol fullapo
#   1    0.84   -0.41    0.02   -0.09   -0.04    0.00    0.00       0.31   -0.38   -0.18
#   2   -0.30   -0.39    0.02    0.01   -0.03    0.00    0.00      -0.68    0.06   -0.13
#   3    0.12   -0.46    0.02   -0.07   -0.06    0.00    0.00      -0.46   -0.24   -0.19
#   4    1.04   -0.36    0.01    0.19    0.14    0.00    0.00       1.03    1.16    0.86
#   5   -1.21   -0.56    0.04   -0.12   -0.06    0.00    0.00      -1.91   -0.61   -0.31
#   6    2.59   -1.51    0.91   -0.02   -0.10    0.00    0.00       1.88   -0.06   -0.38
#   7    0.72   -1.47    0.52   -0.01   -0.14    0.00    0.00      -0.38   -0.04   -0.46
#   8    1.56   -0.75    0.04    0.15   -0.11    0.00    0.00       0.90    0.53   -0.40
#   9    0.08   -0.96    0.12   -0.01   -0.14    0.00    0.00      -0.91   -0.04   -0.45
#  10    0.47   -1.08    0.10    0.21   -0.15    0.00    0.00      -0.45    0.58   -0.40
#  11   -0.89   -2.61    1.27   -0.55   -0.37    0.00    0.00      -3.14   -1.35   -0.91
#  12    3.46   -3.32    2.79    1.82    0.70    0.00    0.00       5.44    5.14    1.98
#  13   -1.56   -1.02    0.17   -0.28   -0.19    0.00    0.00      -2.87   -1.06   -0.73
#  14    0.95   -0.71    0.06    0.32   -0.11    0.00    0.00       0.52    1.41   -0.47
#  15   -0.25   -1.41    0.34   -0.34   -0.31    0.00    0.00      -1.96   -0.83   -0.77
#  16   -0.41   -1.75    0.93    0.50    0.46    0.00    0.00      -0.28    1.19    1.08
#  17   -1.25   -1.78    0.68    0.28    0.53    0.00    0.00      -1.55    0.49    0.94
#  18    0.91   -2.07    0.50   -0.34   -1.07    0.00    0.00      -2.08   -0.62   -1.98
#  19   -4.55   -4.35    2.64   -1.23    0.51    0.00    0.00      -6.97   -2.00    0.83
#  20    0.19   -1.83    0.46    0.80   -0.19    0.00    0.00      -0.57    1.73   -0.42
#  21   -1.10   -2.40    1.09   -1.34   -0.23    0.00    0.00      -3.97   -3.09   -0.53
#  22    2.03   -1.77    0.49    0.18    0.70    0.00    0.00       1.62    0.49    1.96
#  23    1.13   -3.21    1.79    2.88    0.19    0.00    0.00       2.78    6.12    0.41
#  24    0.92   -1.23    0.23    0.22   -0.07    0.00    0.00       0.07    0.37   -0.12
#  25   -1.24   -1.60    0.55   -0.14   -0.09    0.00    0.00      -2.51   -0.25   -0.16
#  26   -0.54   -2.33    1.13   -0.50   -0.11    0.00    0.00      -2.35   -0.77   -0.17
#  27   -0.81   -1.72    0.78   -0.32   -0.10    0.00    0.00      -2.17   -0.54   -0.17
#  28   -0.73   -0.16    0.01    0.08   -0.05    0.00    0.00      -0.84    0.49   -0.28
#  29    0.05   -0.11    0.00    0.02   -0.03    0.00    0.00      -0.07    0.13   -0.24
#  30   -0.36   -0.12    0.00    0.00   -0.03    0.00    0.00      -0.51    0.02   -0.28
#  31   -0.40   -0.21    0.04    0.07   -0.05    0.00    0.00      -0.55    0.33   -0.23
#  32    0.03   -0.16    0.01    0.00   -0.04    0.00    0.00      -0.17    0.01   -0.28
#  33   -0.09   -0.17    0.01    0.01   -0.05    0.00    0.00      -0.29    0.04   -0.28
#  34    0.07   -0.16    0.02    0.08   -0.04    0.00    0.00      -0.04    0.49   -0.28
#  35   -1.71   -0.52    0.42    0.20   -0.05    0.00    0.00      -1.67    0.73   -0.18
#  36   -2.19   -0.57    0.36    0.35   -0.09    0.00    0.00      -2.14    1.03   -0.28
#  37   -1.31   -0.39    0.19    0.03   -0.08    0.00    0.00      -1.55    0.12   -0.28
#  38   -0.21   -0.87    0.43   -0.68   -0.10    0.00    0.00      -1.43   -1.45   -0.21
#  39   -0.30   -0.18    0.02   -0.20   -0.05    0.00    0.00      -0.71   -1.06   -0.28
#  40    2.43   -0.07    0.00    1.30    0.19    0.00    0.00       3.85    2.18    0.32
#  41    2.04   -0.13    0.02    0.69    0.33    0.00    0.00       2.95    1.20    0.58
#  42   -1.64   -0.02    0.00    0.19    0.13    0.00    0.00      -1.34    0.89    0.59
#  43   -0.72   -0.02    0.00    0.04    0.14    0.00    0.00      -0.55    0.17    0.60
#  44    0.70   -0.77    0.59    0.02   -0.13    0.00    0.00       0.40    0.05   -0.28
#  45    1.10   -0.37    0.08    0.21   -0.11    0.00    0.00       0.91    0.53   -0.28
#  46    0.39   -0.75    0.51   -0.01   -0.13    0.00    0.00       0.00   -0.03   -0.28
#  47    0.26   -1.38    2.88    0.28   -0.13    0.00    0.00       1.91    0.43   -0.20
#  48    0.24   -1.21    2.92    0.54   -0.17    0.00    0.00       2.31    0.87   -0.28
#  49    0.17   -0.75    0.26    0.12   -0.18    0.00    0.00      -0.38    0.19   -0.28
#  50    0.29   -0.81    0.84    0.00   -0.13    0.00    0.00       0.18    0.00   -0.28
#  51    0.26   -0.96    2.14    0.40   -0.15    0.00    0.00       1.69    0.76   -0.28
#  52    0.45   -0.51    0.23    0.12   -0.08    0.00    0.00       0.21    0.29   -0.20

@<TRIPOS>MOLECULE
             1569       100
   52    54     0     0     0



@<TRIPOS>ATOM
      1 C1         25.5575    23.2338    60.7674 C.3        1          -0.1829
      2 C2         26.5669    22.7737    59.7137 C.3        1           0.0750
      3 C3         27.5761    23.8932    59.4512 C.3        1          -0.1503
      4 O1         27.2545    21.6139    60.1872 O.3        1          -0.3051
      5 C4         26.4986    20.5215    60.4702 C.ar       1           0.1555
      6 C5         26.2471    19.5772    59.4690 C.ar       1          -0.1937
      7 C6         25.4933    18.4751    59.7256 C.ar       1          -0.0482
      8 C7         24.9582    18.2770    61.0104 C.ar       1          -0.1370
      9 C8         24.1760    17.1475    61.3049 C.ar       1          -0.0088
     10 C9         23.6803    17.0158    62.5945 C.ar       1          -0.0890
     11 C10        23.9713    18.0011    63.5516 C.ar       1           0.1714
     12 N1         24.7017    19.0467    63.2574 N.ar       1          -0.4748
     13 C11        25.2077    19.2282    62.0321 C.ar       1           0.1724
     14 C12        25.9941    20.3542    61.7395 C.ar       1          -0.1471
     15 C13        22.8491    15.8437    62.9588 C.2        1           0.1819
     16 N2         21.5433    15.7549    62.8648 N.2        1          -0.2771
     17 N3         21.1308    14.4941    63.3037 N.pl3      1          -0.3790
     18 C14        22.2034    13.7721    63.6830 C.2        1           0.4181
     19 N4         22.1863    12.4815    64.1712 N.pl3      1          -0.8439
     20 C15        23.3328    14.5623    63.4863 C.2        1          -0.3646
     21 C16        24.7251    14.1902    63.7551 C.2        1           0.6095
     22 N5         25.7165    15.0712    63.5148 N.am       1          -0.8476
     23 O2         24.9859    13.0859    64.1951 O.2        1          -0.5384
     24 C17        19.7425    14.0281    63.3459 C.3        1           0.1780
     25 C18        18.8174    15.1346    62.8356 C.3        1          -0.1406
     26 C19        19.5932    12.7895    62.4601 C.3        1          -0.1653
     27 C20        19.3672    13.6733    64.7860 C.3        1          -0.1672
     28 H1         24.8385    22.4362    60.9545 H          1           0.0741
     29 H2         26.0818    23.4745    61.6922 H          1           0.0632
     30 H3         25.0330    24.1184    60.4063 H          1           0.0698
     31 H4         26.0426    22.5330    58.7889 H          1           0.0754
     32 H5         28.2953    23.5655    58.7005 H          1           0.0688
     33 H6         27.0516    24.7779    59.0900 H          1           0.0663
     34 H7         28.1004    24.1341    60.3759 H          1           0.0786
     35 H8         26.6562    19.7256    58.4807 H          1           0.1378
     36 H9         25.3058    17.7538    58.9440 H          1           0.1364
     37 H10        23.9664    16.4040    60.5500 H          1           0.1445
     38 H11        23.5831    17.8939    64.5535 H          1           0.1672
     39 H12        26.1987    21.0874    62.5057 H          1           0.1445
     40 H13        21.3438    12.0104    64.2673 H          1           0.4040
     41 H14        23.0168    12.0453    64.4181 H          1           0.4174
     42 H15        25.5088    15.9513    63.1641 H          1           0.4014
     43 H16        26.6377    14.8251    63.6928 H          1           0.4016
     44 H17        17.7844    14.7879    62.8669 H          1           0.0703
     45 H18        18.9236    16.0170    63.4668 H          1           0.0737
     46 H19        19.0849    15.3874    61.8096 H          1           0.0710
     47 H20        18.5603    12.4428    62.4914 H          1           0.0608
     48 H21        19.8605    13.0423    61.4340 H          1           0.0847
     49 H22        20.2524    12.0013    62.8236 H          1           0.0701
     50 H23        18.3341    13.3266    64.8175 H          1           0.0710
     51 H24        20.0261    12.8848    65.1496 H          1           0.0847
     52 H25        19.4736    14.5555    65.4173 H          1           0.0611
@<TRIPOS>BOND
     1    1    2 1
     2    1   28 1
     3    1   29 1
     4    1   30 1
     5    2    3 1
     6    2    4 1
     7    2   31 1
     8    3   32 1
     9    3   33 1
    10    3   34 1
    11    4    5 1
    12    5   14 ar
    13    5    6 ar
    14    6    7 ar
    15    6   35 1
    16    7    8 ar
    17    7   36 1
    18    8   13 ar
    19    8    9 ar
    20    9   10 ar
    21    9   37 1
    22   10   11 ar
    23   10   15 1
    24   11   12 ar
    25   11   38 1
    26   12   13 ar
    27   13   14 ar
    28   14   39 1
    29   15   20 1
    30   15   16 2
    31   16   17 1
    32   17   18 1
    33   17   24 1
    34   18   19 1
    35   18   20 2
    36   19   40 1
    37   19   41 1
    38   20   21 1
    39   21   22 am
    40   21   23 2
    41   22   42 1
    42   22   43 1
    43   24   25 1
    44   24   26 1
    45   24   27 1
    46   25   44 1
    47   25   45 1
    48   25   46 1
    49   26   47 1
    50   26   48 1
    51   26   49 1
    52   27   50 1
    53   27   51 1
    54   27   52 1
##########                 Name:                 1480
##########          Protonation:                  100
##########               SMILES:   Cc1c(c2ccccc2o1)c3c(c(n(n3)C(C)(C)C)N)C(=O)N
##########            Long Name:   5-amino-1-tert-butyl-3-(2-methylbenzofuran-3-yl)pyrazole-4-carboxamide
##########          FlexRecCode: 1
##########               Number:                  200
##########   Ligand Source File: /raid1/people/rgc/Examples/tdt/part3/ligand22set/build/ligand22set-0000001.db2.g
##########           GlobalRank: 22
##########                 Rank:                    1
##########               Setnum:                   15
##########             Matchnum:                13570
##########                Cloud:                    1
##########        Electrostatic:            -1.881227
##########        Van der Waals:           -23.098143
##########  Ligand Polar Desolv:             4.168859
########## Ligand Apolar Desolv:            -1.682919
##########      Internal Energy:             0.000000
##########      Receptor Energy: 0.0
########## Receptor Desolvation:             0.000000
########## Receptor Hydrophobic:             0.000000
##########         Total Energy: -22.49
##########        Ligand Charge:             0.000000
##########            Arbitrary:    +999.9990
##########     heavy atom count:   23
##########           pose count:   10
##########        Ligand Energy:             0.000000
# num electro vdwattr vdwrepu polsolv apolsol rdesolv rhydroe totalscore fullpol fullapo
#   1    0.67   -1.00    0.35    0.01   -0.06    0.00    0.00      -0.03    0.04   -0.21
#   2   -0.42   -1.29    0.19   -0.14   -0.12    0.00    0.00      -1.77   -0.37   -0.33
#   3    0.47   -1.22    0.16    0.39   -0.15    0.00    0.00      -0.35    1.10   -0.43
#   4    0.12   -1.52    0.33    0.47   -0.19    0.00    0.00      -0.79    1.10   -0.44
#   5    0.04   -2.16    0.66    0.41   -0.23    0.00    0.00      -1.28    0.81   -0.46
#   6   -0.41   -2.23    0.50    0.37   -0.28    0.00    0.00      -2.05    0.62   -0.47
#   7   -0.43   -1.68    0.28    0.09   -0.28    0.00    0.00      -2.02    0.16   -0.47
#   8   -0.62   -1.73    0.43    0.16   -0.22    0.00    0.00      -1.98    0.34   -0.47
#   9    0.05   -1.52    0.29   -0.03   -0.14    0.00    0.00      -1.36   -0.08   -0.34
#  10    0.46   -1.13    0.10    0.51    0.12    0.00    0.00       0.06    1.19    0.29
#  11   -0.88   -0.97    0.09   -0.41   -0.25    0.00    0.00      -2.40   -1.24   -0.76
#  12    0.67   -1.24    0.20    0.51    0.35    0.00    0.00       0.49    1.60    1.08
#  13    0.52   -0.65    0.03    0.23    0.24    0.00    0.00       0.36    0.88    0.94
#  14   -0.59   -0.62    0.03   -0.24   -0.45    0.00    0.00      -1.86   -1.06   -1.98
#  15   -0.23   -0.65    0.06   -0.26    0.18    0.00    0.00      -0.90   -1.21    0.83
#  16    1.32   -0.72    0.04    0.63   -0.12    0.00    0.00       1.15    2.17   -0.43
#  17   -3.59   -1.13    0.16   -1.14   -0.20    0.00    0.00      -5.90   -3.52   -0.63
#  18    9.60   -1.49    0.37    0.41    0.69    0.00    0.00       9.58    1.17    1.97
#  19    1.68   -1.52    0.34    2.04    0.13    0.00    0.00       2.68    5.99    0.39
#  20    0.02   -0.36    0.02    0.05   -0.02    0.00    0.00      -0.30    0.23   -0.12
#  21   -0.11   -0.79    0.43   -0.04   -0.04    0.00    0.00      -0.56   -0.14   -0.16
#  22   -0.06   -0.89    0.32   -0.16   -0.04    0.00    0.00      -0.82   -0.66   -0.17
#  23   -0.15   -0.18    0.00   -0.05   -0.02    0.00    0.00      -0.39   -0.41   -0.17
#  24   -0.66   -0.25    0.11    0.03   -0.05    0.00    0.00      -0.83    0.18   -0.28
#  25   -1.03   -0.15    0.01    0.01   -0.04    0.00    0.00      -1.20    0.09   -0.28
#  26   -0.65   -0.77    0.69   -0.01   -0.09    0.00    0.00      -0.84   -0.04   -0.28
#  27   -0.71   -0.73    0.86   -0.47   -0.09    0.00    0.00      -1.14   -1.09   -0.21
#  28    0.75   -0.71    0.25   -0.21   -0.16    0.00    0.00      -0.08   -0.37   -0.28
#  29    0.70   -0.32    0.03    0.18   -0.12    0.00    0.00       0.48    0.41   -0.28
#  30    1.54   -0.41    0.12    0.00   -0.10    0.00    0.00       1.16   -0.01   -0.28
#  31    0.33   -0.01    0.00    0.19    0.03    0.00    0.00       0.55    1.81    0.32
#  32    0.28   -0.01    0.00    0.12    0.09    0.00    0.00       0.48    0.76    0.58
#  33   -3.95   -0.02    0.00    0.08    0.12    0.00    0.00      -3.76    0.42    0.59
#  34   -7.15   -0.04    0.00   -0.02    0.20    0.00    0.00      -7.00   -0.06    0.60
#  35    0.09   -0.13    0.02    0.00   -0.04    0.00    0.00      -0.07    0.00   -0.28
#  36    0.08   -0.55    0.95    0.12   -0.07    0.00    0.00       0.53    0.47   -0.28
#  37    0.02   -0.30    0.16   -0.02   -0.07    0.00    0.00      -0.22   -0.08   -0.28
#  38    0.05   -0.17    0.03    0.05   -0.03    0.00    0.00      -0.07    0.37   -0.20
#  39    0.01   -0.68    0.54    0.23   -0.08    0.00    0.00       0.03    0.82   -0.28
#  40    0.05   -0.29    0.14    0.03   -0.05    0.00    0.00      -0.13    0.15   -0.28
#  41    0.08   -0.04    0.00    0.00   -0.01    0.00    0.00       0.03   -0.03   -0.28
#  42    0.07   -0.04    0.00    0.03   -0.01    0.00    0.00       0.05    0.70   -0.28
#  43    0.06   -0.07    0.00    0.01   -0.01    0.00    0.00      -0.01    0.23   -0.20

@<TRIPOS>MOLECULE
             1480       100
   43    45     0     0     0



@<TRIPOS>ATOM
      1 C1         24.7734    18.5602    62.5768 C.3        1          -0.0792
      2 C2         23.9324    17.3413    62.8567 C.2        1           0.0747
      3 C3         24.3792    16.0642    62.8223 C.2        1          -0.1187
      4 C4         23.2176    15.2211    63.1600 C.ar       1          -0.1050
      5 C5         23.0178    13.8495    63.2904 C.ar       1          -0.0622
      6 C6         21.7699    13.3719    63.6271 C.ar       1          -0.1332
      7 C7         20.7180    14.2522    63.8351 C.ar       1          -0.0925
      8 C8         20.9038    15.6120    63.7087 C.ar       1          -0.1095
      9 C9         22.1549    16.1132    63.3698 C.ar       1           0.0508
     10 O1         22.6297    17.3616    63.1831 O.3        1          -0.1865
     11 C10        25.7532    15.6073    62.5089 C.2        1           0.2129
     12 N1         26.5426    14.9136    63.2954 N.2        1          -0.2788
     13 N2         27.7561    14.6773    62.6440 N.pl3      1          -0.3803
     14 C11        27.7298    15.2354    61.4184 C.2        1           0.4166
     15 N3         28.7488    15.2079    60.4881 N.pl3      1          -0.8444
     16 C12        26.4853    15.8398    61.2580 C.2        1          -0.3634
     17 C13        26.0045    16.5649    60.0785 C.2        1           0.6141
     18 N4         24.7679    17.1007    60.0746 N.am       1          -0.8482
     19 O2         26.7220    16.6831    59.1026 O.2        1          -0.5409
     20 C14        28.8857    13.9349    63.2086 C.3        1           0.1787
     21 C15        28.5302    13.4602    64.6191 C.3        1          -0.1403
     22 C16        29.1928    12.7239    62.3254 C.3        1          -0.1651
     23 C17        30.1140    14.8451    63.2714 C.3        1          -0.1671
     24 H1         25.7914    18.2522    62.3381 H          1           0.0817
     25 H2         24.3518    19.1064    61.7330 H          1           0.0892
     26 H3         24.7851    19.2034    63.4567 H          1           0.0962
     27 H4         23.8362    13.1636    63.1284 H          1           0.1374
     28 H5         21.6101    12.3087    63.7291 H          1           0.1299
     29 H6         19.7437    13.8680    64.0983 H          1           0.1355
     30 H7         20.0773    16.2876    63.8727 H          1           0.1324
     31 H8         29.5813    14.7545    60.6939 H          1           0.4034
     32 H9         28.6324    15.6418    59.6284 H          1           0.4170
     33 H10        24.1961    17.0065    60.8524 H          1           0.4004
     34 H11        24.4497    17.5805    59.2939 H          1           0.3998
     35 H12        29.3707    12.9079    65.0392 H          1           0.0706
     36 H13        28.3113    14.3228    65.2484 H          1           0.0732
     37 H14        27.6553    12.8117    64.5744 H          1           0.0706
     38 H15        30.0334    12.1717    62.7456 H          1           0.0604
     39 H16        28.3179    12.0754    62.2809 H          1           0.0843
     40 H17        29.4460    13.0619    61.3206 H          1           0.0701
     41 H18        30.9544    14.2927    63.6916 H          1           0.0704
     42 H19        30.3672    15.1833    62.2667 H          1           0.0844
     43 H20        29.8952    15.7077    63.9008 H          1           0.0607
@<TRIPOS>BOND
     1    1    2 1
     2    1   24 1
     3    1   25 1
     4    1   26 1
     5    2   10 1
     6    2    3 2
     7    3    4 1
     8    3   11 1
     9    4    9 ar
    10    4    5 ar
    11    5    6 ar
    12    5   27 1
    13    6    7 ar
    14    6   28 1
    15    7    8 ar
    16    7   29 1
    17    8    9 ar
    18    8   30 1
    19    9   10 1
    20   11   16 1
    21   11   12 2
    22   12   13 1
    23   13   14 1
    24   13   20 1
    25   14   15 1
    26   14   16 2
    27   15   31 1
    28   15   32 1
    29   16   17 1
    30   17   18 am
    31   17   19 2
    32   18   33 1
    33   18   34 1
    34   20   21 1
    35   20   22 1
    36   20   23 1
    37   21   35 1
    38   21   36 1
    39   21   37 1
    40   22   38 1
    41   22   39 1
    42   22   40 1
    43   23   41 1
    44   23   42 1
    45   23   43 1
##########                 Name:                 1480
##########          Protonation:                  100
##########               SMILES:   Cc1c(c2ccccc2o1)c3c(c(n(n3)C(C)(C)C)N)C(=O)N
##########            Long Name:   5-amino-1-tert-butyl-3-(2-methylbenzofuran-3-yl)pyrazole-4-carboxamide
##########          FlexRecCode: 1
##########               Number:                  200
##########   Ligand Source File: /raid1/people/rgc/Examples/tdt/part3/ligand22set/build/ligand22set-0000001.db2.g
##########           GlobalRank: 22
##########                 Rank:                    2
##########               Setnum:                   15
##########             Matchnum:                53809
##########                Cloud:                    1
##########        Electrostatic:            -1.053441
##########        Van der Waals:           -23.768566
##########  Ligand Polar Desolv:             4.226671
########## Ligand Apolar Desolv:            -1.408527
##########      Internal Energy:             0.000000
##########      Receptor Energy: 0.0
########## Receptor Desolvation:             0.000000
########## Receptor Hydrophobic:             0.000000
##########         Total Energy: -22.0
##########        Ligand Charge:             0.000000
##########            Arbitrary:    +999.9990
##########     heavy atom count:   23
##########           pose count:   10
##########        Ligand Energy:             0.000000
# num electro vdwattr vdwrepu polsolv apolsol rdesolv rhydroe totalscore fullpol fullapo
#   1    0.82   -0.70    0.06    0.01   -0.07    0.00    0.00       0.13    0.04   -0.21
#   2   -0.51   -1.11    0.09   -0.14   -0.12    0.00    0.00      -1.79   -0.37   -0.33
#   3    0.59   -1.13    0.13    0.38   -0.15    0.00    0.00      -0.17    1.10   -0.43
#   4    0.14   -1.42    0.26    0.45   -0.18    0.00    0.00      -0.76    1.10   -0.44
#   5    0.02   -1.88    0.49    0.39   -0.22    0.00    0.00      -1.21    0.81   -0.46
#   6   -0.39   -2.10    0.50    0.35   -0.26    0.00    0.00      -1.91    0.62   -0.47
#   7   -0.47   -1.77    0.37    0.09   -0.27    0.00    0.00      -2.05    0.16   -0.47
#   8   -0.70   -1.91    0.63    0.16   -0.22    0.00    0.00      -2.05    0.34   -0.47
#   9    0.06   -1.53    0.28   -0.03   -0.15    0.00    0.00      -1.38   -0.08   -0.34
#  10    0.59   -1.14    0.10    0.52    0.13    0.00    0.00       0.21    1.19    0.29
#  11   -1.13   -0.95    0.13   -0.35   -0.22    0.00    0.00      -2.52   -1.24   -0.76
#  12    1.07   -1.39    0.41    0.44    0.30    0.00    0.00       0.82    1.60    1.08
#  13    0.77   -0.59    0.04    0.19    0.20    0.00    0.00       0.60    0.88    0.94
#  14   -0.89   -0.53    0.02   -0.21   -0.40    0.00    0.00      -2.01   -1.06   -1.98
#  15    0.14   -0.57    0.05   -0.23    0.16    0.00    0.00      -0.45   -1.21    0.83
#  16    1.83   -0.70    0.04    0.60   -0.12    0.00    0.00       1.64    2.17   -0.43
#  17   -5.47   -1.42    0.28   -1.20   -0.22    0.00    0.00      -8.02   -3.52   -0.63
#  18   12.62   -2.06    0.90    0.45    0.75    0.00    0.00      12.66    1.17    1.97
#  19    3.46   -2.19    0.72    2.31    0.15    0.00    0.00       4.45    5.99    0.39
#  20   -0.03   -0.28    0.01    0.04   -0.02    0.00    0.00      -0.29    0.23   -0.12
#  21   -0.05   -0.68    0.21   -0.03   -0.04    0.00    0.00      -0.60   -0.14   -0.16
#  22   -0.06   -0.37    0.03   -0.12   -0.03    0.00    0.00      -0.55   -0.66   -0.17
#  23   -0.13   -0.16    0.00   -0.04   -0.02    0.00    0.00      -0.35   -0.41   -0.17
#  24   -0.76   -0.15    0.01    0.02   -0.04    0.00    0.00      -0.91    0.18   -0.28
#  25   -1.40   -0.16    0.01    0.01   -0.05    0.00    0.00      -1.59    0.09   -0.28
#  26   -0.78   -0.42    0.10   -0.01   -0.08    0.00    0.00      -1.19   -0.04   -0.28
#  27   -0.46   -0.41    0.11   -0.40   -0.08    0.00    0.00      -1.23   -1.09   -0.21
#  28    0.61   -0.59    0.15   -0.20   -0.15    0.00    0.00      -0.19   -0.37   -0.28
#  29    0.76   -0.33    0.05    0.16   -0.11    0.00    0.00       0.52    0.41   -0.28
#  30    1.76   -0.47    0.19    0.00   -0.10    0.00    0.00       1.38   -0.01   -0.28
#  31    0.25   -0.01    0.00    0.14    0.02    0.00    0.00       0.40    1.81    0.32
#  32    0.15   -0.01    0.00    0.12    0.09    0.00    0.00       0.35    0.76    0.58
#  33   -4.84   -0.02    0.00    0.10    0.14    0.00    0.00      -4.63    0.42    0.59
#  34   -9.04   -0.06    0.00   -0.02    0.25    0.00    0.00      -8.88   -0.06    0.60
#  35    0.08   -0.11    0.01    0.00   -0.03    0.00    0.00      -0.05    0.00   -0.28
#  36   -0.01   -0.40    0.15    0.13   -0.08    0.00    0.00      -0.20    0.47   -0.28
#  37    0.02   -0.33    0.23   -0.02   -0.06    0.00    0.00      -0.15   -0.08   -0.28
#  38    0.05   -0.07    0.00    0.02   -0.01    0.00    0.00       0.00    0.37   -0.20
#  39   -0.02   -0.21    0.04    0.15   -0.05    0.00    0.00      -0.10    0.82   -0.28
#  40    0.06   -0.11    0.01    0.02   -0.03    0.00    0.00      -0.06    0.15   -0.28
#  41    0.08   -0.03    0.00    0.00   -0.01    0.00    0.00       0.05   -0.03   -0.28
#  42    0.06   -0.03    0.00    0.02   -0.01    0.00    0.00       0.05    0.70   -0.28
#  43    0.07   -0.07    0.00    0.02   -0.01    0.00    0.00       0.01    0.23   -0.20

@<TRIPOS>MOLECULE
             1480       100
   43    45     0     0     0



@<TRIPOS>ATOM
      1 C1         24.2362    19.1136    62.1194 C.3        1          -0.0792
      2 C2         23.5746    17.8402    62.5799 C.2        1           0.0747
      3 C3         24.1802    16.6320    62.6525 C.2        1          -0.1187
      4 C4         23.1555    15.6962    63.1509 C.ar       1          -0.1050
      5 C5         23.1412    14.3341    63.4383 C.ar       1          -0.0622
      6 C6         21.9837    13.7480    63.9024 C.ar       1          -0.1332
      7 C7         20.8386    14.5102    64.0825 C.ar       1          -0.0925
      8 C8         20.8408    15.8595    63.8013 C.ar       1          -0.1095
      9 C9         21.9983    16.4690    63.3322 C.ar       1           0.0508
     10 O1         22.2980    17.7371    62.9846 O.3        1          -0.1865
     11 C10        25.5844    16.3148    62.3024 C.2        1           0.2129
     12 N1         26.4949    15.8168    63.1061 N.2        1          -0.2788
     13 N2         27.6948    15.6592    62.4075 N.pl3      1          -0.3803
     14 C11        27.5358    16.0676    61.1338 C.2        1           0.4166
     15 N3         28.5022    16.0604    60.1487 N.pl3      1          -0.8444
     16 C12        26.2172    16.4925    60.9898 C.2        1          -0.3634
     17 C13        25.5888    17.0150    59.7732 C.2        1           0.6141
     18 N4         24.2947    17.3909    59.7913 N.am       1          -0.8482
     19 O2         26.2355    17.1093    58.7466 O.2        1          -0.5409
     20 C14        28.9375    15.1298    62.9744 C.3        1           0.1787
     21 C15        28.7169    14.7777    64.4470 C.3        1          -0.1403
     22 C16        29.3540    13.8737    62.2067 C.3        1          -0.1651
     23 C17        30.0396    16.1852    62.8621 C.3        1          -0.1671
     24 H1         25.2723    18.9080    61.8504 H          1           0.0817
     25 H2         23.7062    19.5049    61.2512 H          1           0.0892
     26 H3         24.2086    19.8487    62.9238 H          1           0.0962
     27 H4         24.0321    13.7400    63.2980 H          1           0.1374
     28 H5         21.9677    12.6916    64.1264 H          1           0.1299
     29 H6         19.9363    14.0415    64.4464 H          1           0.1355
     30 H7         19.9432    16.4427    63.9451 H          1           0.1324
     31 H8         29.3954    15.7389    60.3479 H          1           0.4034
     32 H9         28.2881    16.3767    59.2570 H          1           0.4170
     33 H10        23.7792    17.3158    60.6095 H          1           0.4004
     34 H11        23.8787    17.7366    58.9861 H          1           0.3998
     35 H12        29.6415    14.3838    64.8688 H          1           0.0706
     36 H13        28.4201    15.6724    64.9941 H          1           0.0732
     37 H14        27.9319    14.0257    64.5271 H          1           0.0706
     38 H15        30.2787    13.4800    62.6286 H          1           0.0604
     39 H16        28.5690    13.1218    62.2868 H          1           0.0843
     40 H17        29.5112    14.1244    61.1576 H          1           0.0701
     41 H18        30.9642    15.7913    63.2841 H          1           0.0704
     42 H19        30.1968    16.4362    61.8132 H          1           0.0844
     43 H20        29.7429    17.0800    63.4093 H          1           0.0607
@<TRIPOS>BOND
     1    1    2 1
     2    1   24 1
     3    1   25 1
     4    1   26 1
     5    2   10 1
     6    2    3 2
     7    3    4 1
     8    3   11 1
     9    4    9 ar
    10    4    5 ar
    11    5    6 ar
    12    5   27 1
    13    6    7 ar
    14    6   28 1
    15    7    8 ar
    16    7   29 1
    17    8    9 ar
    18    8   30 1
    19    9   10 1
    20   11   16 1
    21   11   12 2
    22   12   13 1
    23   13   14 1
    24   13   20 1
    25   14   15 1
    26   14   16 2
    27   15   31 1
    28   15   32 1
    29   16   17 1
    30   17   18 am
    31   17   19 2
    32   18   33 1
    33   18   34 1
    34   20   21 1
    35   20   22 1
    36   20   23 1
    37   21   35 1
    38   21   36 1
    39   21   37 1
    40   22   38 1
    41   22   39 1
    42   22   40 1
    43   23   41 1
    44   23   42 1
    45   23   43 1
##########                 Name:                 1480
##########          Protonation:                  100
##########               SMILES:   Cc1c(c2ccccc2o1)c3c(c(n(n3)C(C)(C)C)N)C(=O)N
##########            Long Name:   5-amino-1-tert-butyl-3-(2-methylbenzofuran-3-yl)pyrazole-4-carboxamide
##########          FlexRecCode: 1
##########               Number:                  200
##########   Ligand Source File: /raid1/people/rgc/Examples/tdt/part3/ligand22set/build/ligand22set-0000001.db2.g
##########           GlobalRank: 22
##########                 Rank:                    3
##########               Setnum:                   15
##########             Matchnum:                53808
##########                Cloud:                    1
##########        Electrostatic:            -1.073842
##########        Van der Waals:           -23.541225
##########  Ligand Polar Desolv:             4.161596
########## Ligand Apolar Desolv:            -1.515948
##########      Internal Energy:             0.000000
##########      Receptor Energy: 0.0
########## Receptor Desolvation:             0.000000
########## Receptor Hydrophobic:             0.000000
##########         Total Energy: -21.97
##########        Ligand Charge:             0.000000
##########            Arbitrary:    +999.9990
##########     heavy atom count:   23
##########           pose count:   10
##########        Ligand Energy:             0.000000
# num electro vdwattr vdwrepu polsolv apolsol rdesolv rhydroe totalscore fullpol fullapo
#   1    0.78   -0.77    0.09    0.01   -0.07    0.00    0.00       0.05    0.04   -0.21
#   2   -0.50   -1.15    0.10   -0.14   -0.12    0.00    0.00      -1.82   -0.37   -0.33
#   3    0.58   -1.15    0.14    0.38   -0.15    0.00    0.00      -0.20    1.10   -0.43
#   4    0.13   -1.41    0.26    0.45   -0.18    0.00    0.00      -0.75    1.10   -0.44
#   5    0.02   -1.85    0.49    0.39   -0.22    0.00    0.00      -1.18    0.81   -0.46
#   6   -0.40   -1.97    0.41    0.36   -0.27    0.00    0.00      -1.87    0.62   -0.47
#   7   -0.48   -1.66    0.29    0.09   -0.27    0.00    0.00      -2.04    0.16   -0.47
#   8   -0.74   -1.86    0.54    0.16   -0.22    0.00    0.00      -2.12    0.34   -0.47
#   9    0.06   -1.53    0.28   -0.03   -0.15    0.00    0.00      -1.37   -0.08   -0.34
#  10    0.61   -1.16    0.11    0.52    0.13    0.00    0.00       0.21    1.19    0.29
#  11   -1.11   -0.99    0.14   -0.36   -0.22    0.00    0.00      -2.53   -1.24   -0.76
#  12    1.01   -1.46    0.41    0.46    0.31    0.00    0.00       0.73    1.60    1.08
#  13    0.77   -0.63    0.04    0.20    0.21    0.00    0.00       0.58    0.88    0.94
#  14   -0.88   -0.53    0.02   -0.22   -0.40    0.00    0.00      -2.01   -1.06   -1.98
#  15    0.17   -0.54    0.04   -0.23    0.16    0.00    0.00      -0.40   -1.21    0.83
#  16    1.79   -0.68    0.03    0.59   -0.12    0.00    0.00       1.62    2.17   -0.43
#  17   -5.24   -1.25    0.20   -1.16   -0.21    0.00    0.00      -7.66   -3.52   -0.63
#  18   12.46   -1.79    0.59    0.43    0.72    0.00    0.00      12.41    1.17    1.97
#  19    3.15   -1.78    0.43    2.19    0.14    0.00    0.00       4.13    5.99    0.39
#  20   -0.03   -0.32    0.01    0.04   -0.02    0.00    0.00      -0.32    0.23   -0.12
#  21   -0.07   -0.86    0.47   -0.04   -0.04    0.00    0.00      -0.54   -0.14   -0.16
#  22   -0.05   -0.42    0.04   -0.13   -0.03    0.00    0.00      -0.60   -0.66   -0.17
#  23   -0.12   -0.18    0.00   -0.05   -0.02    0.00    0.00      -0.37   -0.41   -0.17
#  24   -0.72   -0.17    0.02    0.03   -0.04    0.00    0.00      -0.88    0.18   -0.28
#  25   -1.32   -0.16    0.01    0.01   -0.04    0.00    0.00      -1.51    0.09   -0.28
#  26   -0.69   -0.49    0.16   -0.01   -0.09    0.00    0.00      -1.12   -0.04   -0.28
#  27   -0.44   -0.41    0.12   -0.41   -0.08    0.00    0.00      -1.22   -1.09   -0.21
#  28    0.59   -0.52    0.10   -0.20   -0.15    0.00    0.00      -0.18   -0.37   -0.28
#  29    0.81   -0.31    0.03    0.16   -0.11    0.00    0.00       0.58    0.41   -0.28
#  30    1.98   -0.52    0.27    0.00   -0.10    0.00    0.00       1.63   -0.01   -0.28
#  31    0.22   -0.01    0.00    0.13    0.02    0.00    0.00       0.37    1.81    0.32
#  32    0.08   -0.01    0.00    0.11    0.08    0.00    0.00       0.26    0.76    0.58
#  33   -4.84   -0.02    0.00    0.09    0.13    0.00    0.00      -4.64    0.42    0.59
#  34   -9.08   -0.05    0.00   -0.02    0.23    0.00    0.00      -8.92   -0.06    0.60
#  35    0.09   -0.14    0.02    0.00   -0.04    0.00    0.00      -0.07    0.00   -0.28
#  36    0.02   -0.50    0.34    0.14   -0.08    0.00    0.00      -0.09    0.47   -0.28
#  37    0.02   -0.41    0.45   -0.02   -0.06    0.00    0.00      -0.02   -0.08   -0.28
#  38    0.05   -0.08    0.00    0.03   -0.02    0.00    0.00      -0.01    0.37   -0.20
#  39   -0.03   -0.26    0.05    0.16   -0.06    0.00    0.00      -0.13    0.82   -0.28
#  40    0.05   -0.13    0.01    0.02   -0.03    0.00    0.00      -0.08    0.15   -0.28
#  41    0.08   -0.03    0.00    0.00   -0.01    0.00    0.00       0.04   -0.03   -0.28
#  42    0.06   -0.03    0.00    0.02   -0.01    0.00    0.00       0.05    0.70   -0.28
#  43    0.07   -0.08    0.01    0.02   -0.02    0.00    0.00      -0.01    0.23   -0.20

@<TRIPOS>MOLECULE
             1480       100
   43    45     0     0     0



@<TRIPOS>ATOM
      1 C1         24.3291    19.1191    62.2636 C.3        1          -0.0792
      2 C2         23.5962    17.8602    62.6501 C.2        1           0.0747
      3 C3         24.1457    16.6243    62.6969 C.2        1          -0.1187
      4 C4         23.0635    15.7173    63.1216 C.ar       1          -0.1050
      5 C5         22.9795    14.3474    63.3549 C.ar       1          -0.0622
      6 C6         21.7812    13.7967    63.7543 C.ar       1          -0.1332
      7 C7         20.6643    14.6021    63.9233 C.ar       1          -0.0925
      8 C8         20.7355    15.9595    63.6953 C.ar       1          -0.1095
      9 C9         21.9350    16.5337    63.2918 C.ar       1           0.0508
     10 O1         22.3021    17.7993    63.0049 O.3        1          -0.1865
     11 C10        25.5469    16.2579    62.3848 C.2        1           0.2129
     12 N1         26.4044    15.6899    63.2003 N.2        1          -0.2788
     13 N2         27.6215    15.5050    62.5392 N.pl3      1          -0.3803
     14 C11        27.5279    15.9676    61.2776 C.2        1           0.4166
     15 N3         28.5291    15.9542    60.3279 N.pl3      1          -0.8444
     16 C12        26.2353    16.4562    61.1035 C.2        1          -0.3634
     17 C13        25.6758    17.0515    59.8867 C.2        1           0.6141
     18 N4         24.3994    17.4840    59.8735 N.am       1          -0.8482
     19 O2         26.3638    17.1552    58.8882 O.2        1          -0.5409
     20 C14        28.8181    14.8997    63.1288 C.3        1           0.1787
     21 C15        28.5278    14.5028    64.5777 C.3        1          -0.1403
     22 C16        29.2080    13.6558    62.3278 C.3        1          -0.1651
     23 C17        29.9684    15.9081    63.0971 C.3        1          -0.1671
     24 H1         25.3646    18.8776    62.0238 H          1           0.0817
     25 H2         23.8492    19.5661    61.3930 H          1           0.0892
     26 H3         24.3034    19.8241    63.0946 H          1           0.0962
     27 H4         23.8485    13.7196    63.2233 H          1           0.1374
     28 H5         21.7111    12.7344    63.9361 H          1           0.1299
     29 H6         19.7296    14.1609    64.2362 H          1           0.1355
     30 H7         19.8593    16.5764    63.8297 H          1           0.1324
     31 H8         29.3995    15.5857    60.5460 H          1           0.4034
     32 H9         28.3623    16.3129    59.4422 H          1           0.4170
     33 H10        23.8511    17.4014    60.6693 H          1           0.4004
     34 H11        24.0291    17.8780    59.0681 H          1           0.3998
     35 H12        29.4181    14.0524    65.0164 H          1           0.0706
     36 H13        28.2499    15.3888    65.1484 H          1           0.0732
     37 H14        27.7085    13.7843    64.6003 H          1           0.0706
     38 H15        30.0985    13.2056    62.7666 H          1           0.0604
     39 H16        28.3888    12.9373    62.3506 H          1           0.0843
     40 H17        29.4149    13.9384    61.2956 H          1           0.0701
     41 H18        30.8586    15.4577    63.5359 H          1           0.0704
     42 H19        30.1752    16.1910    62.0650 H          1           0.0844
     43 H20        29.6905    16.7942    63.6679 H          1           0.0607
@<TRIPOS>BOND
     1    1    2 1
     2    1   24 1
     3    1   25 1
     4    1   26 1
     5    2   10 1
     6    2    3 2
     7    3    4 1
     8    3   11 1
     9    4    9 ar
    10    4    5 ar
    11    5    6 ar
    12    5   27 1
    13    6    7 ar
    14    6   28 1
    15    7    8 ar
    16    7   29 1
    17    8    9 ar
    18    8   30 1
    19    9   10 1
    20   11   16 1
    21   11   12 2
    22   12   13 1
    23   13   14 1
    24   13   20 1
    25   14   15 1
    26   14   16 2
    27   15   31 1
    28   15   32 1
    29   16   17 1
    30   17   18 am
    31   17   19 2
    32   18   33 1
    33   18   34 1
    34   20   21 1
    35   20   22 1
    36   20   23 1
    37   21   35 1
    38   21   36 1
    39   21   37 1
    40   22   38 1
    41   22   39 1
    42   22   40 1
    43   23   41 1
    44   23   42 1
    45   23   43 1
##########                 Name:                 1480
##########          Protonation:                  100
##########               SMILES:   Cc1c(c2ccccc2o1)c3c(c(n(n3)C(C)(C)C)N)C(=O)N
##########            Long Name:   5-amino-1-tert-butyl-3-(2-methylbenzofuran-3-yl)pyrazole-4-carboxamide
##########          FlexRecCode: 1
##########               Number:                  200
##########   Ligand Source File: /raid1/people/rgc/Examples/tdt/part3/ligand22set/build/ligand22set-0000001.db2.g
##########           GlobalRank: 22
##########                 Rank:                    4
##########               Setnum:                   15
##########             Matchnum:                 5142
##########                Cloud:                    1
##########        Electrostatic:            -4.506952
##########        Van der Waals:           -20.268513
##########  Ligand Polar Desolv:             3.856287
########## Ligand Apolar Desolv:            -1.005862
##########      Internal Energy:             0.000000
##########      Receptor Energy: 0.0
########## Receptor Desolvation:             0.000000
########## Receptor Hydrophobic:             0.000000
##########         Total Energy: -21.93
##########        Ligand Charge:             0.000000
##########            Arbitrary:    +999.9990
##########     heavy atom count:   23
##########           pose count:   10
##########        Ligand Energy:             0.000000
# num electro vdwattr vdwrepu polsolv apolsol rdesolv rhydroe totalscore fullpol fullapo
#   1    0.86   -0.54    0.04    0.01   -0.06    0.00    0.00       0.32    0.04   -0.21
#   2   -0.70   -0.97    0.10   -0.12   -0.10    0.00    0.00      -1.80   -0.37   -0.33
#   3    0.85   -0.99    0.16    0.31   -0.12    0.00    0.00       0.21    1.10   -0.43
#   4    0.43   -1.17    0.14    0.39   -0.16    0.00    0.00      -0.37    1.10   -0.44
#   5    0.15   -1.48    0.25    0.34   -0.19    0.00    0.00      -0.93    0.81   -0.46
#   6   -0.08   -1.91    0.52    0.30   -0.23    0.00    0.00      -1.40    0.62   -0.47
#   7   -0.30   -1.74    0.42    0.08   -0.23    0.00    0.00      -1.77    0.16   -0.47
#   8   -0.28   -1.69    0.39    0.15   -0.21    0.00    0.00      -1.64    0.34   -0.47
#   9   -0.16   -1.24    0.12   -0.03   -0.14    0.00    0.00      -1.45   -0.08   -0.34
#  10    1.44   -0.93    0.05    0.47    0.11    0.00    0.00       1.14    1.19    0.29
#  11   -1.16   -0.73    0.10   -0.27   -0.17    0.00    0.00      -2.23   -1.24   -0.76
#  12    1.00   -0.95    0.29    0.32    0.22    0.00    0.00       0.88    1.60    1.08
#  13    0.38   -0.37    0.01    0.13    0.14    0.00    0.00       0.29    0.88    0.94
#  14   -0.45   -0.41    0.01   -0.17   -0.32    0.00    0.00      -1.34   -1.06   -1.98
#  15   -0.40   -0.45    0.02   -0.22    0.15    0.00    0.00      -0.90   -1.21    0.83
#  16    1.50   -0.59    0.03    0.52   -0.10    0.00    0.00       1.35    2.17   -0.43
#  17   -4.77   -1.48    0.34   -1.16   -0.21    0.00    0.00      -7.27   -3.52   -0.63
#  18   14.58   -2.50    1.47    0.43    0.73    0.00    0.00      14.71    1.17    1.97
#  19    0.45   -2.17    0.64    2.33    0.15    0.00    0.00       1.41    5.99    0.39
#  20    0.08   -0.17    0.00    0.02   -0.01    0.00    0.00      -0.07    0.23   -0.12
#  21   -0.09   -0.30    0.02   -0.02   -0.03    0.00    0.00      -0.42   -0.14   -0.16
#  22   -0.14   -0.21    0.01   -0.09   -0.02    0.00    0.00      -0.45   -0.66   -0.17
#  23   -0.21   -0.10    0.00   -0.03   -0.01    0.00    0.00      -0.34   -0.41   -0.17
#  24   -0.68   -0.10    0.00    0.02   -0.03    0.00    0.00      -0.79    0.18   -0.28
#  25   -1.53   -0.17    0.01    0.01   -0.04    0.00    0.00      -1.71    0.09   -0.28
#  26   -0.74   -0.25    0.04   -0.01   -0.06    0.00    0.00      -1.03   -0.04   -0.28
#  27   -0.54   -0.26    0.03   -0.31   -0.06    0.00    0.00      -1.13   -1.09   -0.21
#  28    0.17   -0.47    0.12   -0.17   -0.13    0.00    0.00      -0.49   -0.37   -0.28
#  29    0.73   -0.31    0.05    0.14   -0.10    0.00    0.00       0.51    0.41   -0.28
#  30    1.04   -0.47    0.21    0.00   -0.10    0.00    0.00       0.68   -0.01   -0.28
#  31    0.42    0.00    0.00    0.10    0.02    0.00    0.00       0.53    1.81    0.32
#  32    0.20   -0.01    0.00    0.11    0.08    0.00    0.00       0.38    0.76    0.58
#  33   -5.90   -0.02    0.00    0.10    0.14    0.00    0.00      -5.68    0.42    0.59
#  34  -11.25   -0.14    0.03   -0.02    0.25    0.00    0.00     -11.14   -0.06    0.60
#  35    0.09   -0.05    0.00    0.00   -0.01    0.00    0.00       0.02    0.00   -0.28
#  36    0.03   -0.16    0.02    0.07   -0.04    0.00    0.00      -0.08    0.47   -0.28
#  37    0.01   -0.12    0.01   -0.01   -0.04    0.00    0.00      -0.14   -0.08   -0.28
#  38    0.06   -0.04    0.00    0.01   -0.01    0.00    0.00       0.03    0.37   -0.20
#  39    0.04   -0.12    0.01    0.09   -0.03    0.00    0.00      -0.01    0.82   -0.28
#  40    0.07   -0.07    0.00    0.01   -0.02    0.00    0.00       0.00    0.15   -0.28
#  41    0.09   -0.02    0.00    0.00   -0.01    0.00    0.00       0.06   -0.03   -0.28
#  42    0.10   -0.02    0.00    0.02   -0.01    0.00    0.00       0.09    0.70   -0.28
#  43    0.09   -0.03    0.00    0.01   -0.01    0.00    0.00       0.05    0.23   -0.20

@<TRIPOS>MOLECULE
             1480       100
   43    45     0     0     0



@<TRIPOS>ATOM
      1 C1         24.9966    19.6991    61.5858 C.3        1          -0.0792
      2 C2         24.3640    18.4328    62.1031 C.2        1           0.0747
      3 C3         24.9855    17.2338    62.1920 C.2        1          -0.1187
      4 C4         23.9873    16.3022    62.7486 C.ar       1          -0.1050
      5 C5         23.9975    14.9491    63.0757 C.ar       1          -0.0622
      6 C6         22.8615    14.3645    63.5920 C.ar       1          -0.1332
      7 C7         21.7137    15.1194    63.7850 C.ar       1          -0.0925
      8 C8         21.6917    16.4598    63.4649 C.ar       1          -0.1095
      9 C9         22.8273    17.0676    62.9430 C.ar       1           0.0508
     10 O1         23.1016    18.3281    62.5496 O.3        1          -0.1865
     11 C10        26.3819    16.9215    61.8083 C.2        1           0.2129
     12 N1         27.3222    16.4570    62.5977 N.2        1          -0.2788
     13 N2         28.5020    16.2918    61.8674 N.pl3      1          -0.3803
     14 C11        28.2996    16.6609    60.5879 C.2        1           0.4166
     15 N3         29.2357    16.6352    59.5742 N.pl3      1          -0.8444
     16 C12        26.9725    17.0674    60.4723 C.2        1          -0.3634
     17 C13        26.3013    17.5472    59.2610 C.2        1           0.6141
     18 N4         25.0041    17.9096    59.3079 N.am       1          -0.8482
     19 O2         26.9154    17.6182    58.2126 O.2        1          -0.5409
     20 C14        29.7674    15.7926    62.4111 C.3        1           0.1787
     21 C15        29.5958    15.4814    63.8993 C.3        1          -0.1403
     22 C16        30.1749    14.5189    61.6676 C.3        1          -0.1651
     23 C17        30.8533    16.8559    62.2344 C.3        1          -0.1671
     24 H1         26.0263    19.4968    61.2911 H          1           0.0817
     25 H2         24.4359    20.0592    60.7232 H          1           0.0892
     26 H3         24.9850    20.4572    62.3689 H          1           0.0962
     27 H4         24.8905    14.3606    62.9254 H          1           0.1374
     28 H5         22.8645    13.3151    63.8469 H          1           0.1299
     29 H6         20.8283    14.6520    64.1899 H          1           0.1355
     30 H7         20.7922    17.0373    63.6192 H          1           0.1324
     31 H8         30.1382    16.3292    59.7551 H          1           0.4034
     32 H9         28.9909    16.9228    58.6807 H          1           0.4170
     33 H10        24.5146    17.8531    60.1434 H          1           0.4004
     34 H11        24.5599    18.2271    58.5061 H          1           0.3998
     35 H12        30.5373    15.1100    64.3037 H          1           0.0706
     36 H13        29.3054    16.3886    64.4290 H          1           0.0732
     37 H14        28.8223    14.7238    64.0252 H          1           0.0706
     38 H15        31.1165    14.1477    62.0722 H          1           0.0604
     39 H16        29.4014    13.7614    61.7936 H          1           0.0843
     40 H17        30.2971    14.7404    60.6074 H          1           0.0701
     41 H18        31.7948    16.4844    62.6389 H          1           0.0704
     42 H19        30.9756    17.0776    61.1743 H          1           0.0844
     43 H20        30.5631    17.7631    62.7642 H          1           0.0607
@<TRIPOS>BOND
     1    1    2 1
     2    1   24 1
     3    1   25 1
     4    1   26 1
     5    2   10 1
     6    2    3 2
     7    3    4 1
     8    3   11 1
     9    4    9 ar
    10    4    5 ar
    11    5    6 ar
    12    5   27 1
    13    6    7 ar
    14    6   28 1
    15    7    8 ar
    16    7   29 1
    17    8    9 ar
    18    8   30 1
    19    9   10 1
    20   11   16 1
    21   11   12 2
    22   12   13 1
    23   13   14 1
    24   13   20 1
    25   14   15 1
    26   14   16 2
    27   15   31 1
    28   15   32 1
    29   16   17 1
    30   17   18 am
    31   17   19 2
    32   18   33 1
    33   18   34 1
    34   20   21 1
    35   20   22 1
    36   20   23 1
    37   21   35 1
    38   21   36 1
    39   21   37 1
    40   22   38 1
    41   22   39 1
    42   22   40 1
    43   23   41 1
    44   23   42 1
    45   23   43 1
##########                 Name:                 1480
##########          Protonation:                  100
##########               SMILES:   Cc1c(c2ccccc2o1)c3c(c(n(n3)C(C)(C)C)N)C(=O)N
##########            Long Name:   5-amino-1-tert-butyl-3-(2-methylbenzofuran-3-yl)pyrazole-4-carboxamide
##########          FlexRecCode: 1
##########               Number:                  200
##########   Ligand Source File: /raid1/people/rgc/Examples/tdt/part3/ligand22set/build/ligand22set-0000001.db2.g
##########           GlobalRank: 22
##########                 Rank:                    5
##########               Setnum:                   15
##########             Matchnum:                68233
##########                Cloud:                    1
##########        Electrostatic:            -4.022164
##########        Van der Waals:           -20.568859
##########  Ligand Polar Desolv:             4.016181
########## Ligand Apolar Desolv:            -0.936110
##########      Internal Energy:             0.000000
##########      Receptor Energy: 0.0
########## Receptor Desolvation:             0.000000
########## Receptor Hydrophobic:             0.000000
##########         Total Energy: -21.51
##########        Ligand Charge:             0.000000
##########            Arbitrary:    +999.9990
##########     heavy atom count:   23
##########           pose count:   10
##########        Ligand Energy:             0.000000
# num electro vdwattr vdwrepu polsolv apolsol rdesolv rhydroe totalscore fullpol fullapo
#   1    0.89   -0.49    0.03    0.01   -0.05    0.00    0.00       0.38    0.04   -0.21
#   2   -0.71   -0.92    0.08   -0.11   -0.10    0.00    0.00      -1.77   -0.37   -0.33
#   3    0.83   -0.96    0.14    0.31   -0.12    0.00    0.00       0.20    1.10   -0.43
#   4    0.41   -1.20    0.15    0.40   -0.16    0.00    0.00      -0.41    1.10   -0.44
#   5    0.12   -1.57    0.30    0.34   -0.20    0.00    0.00      -1.00    0.81   -0.46
#   6   -0.17   -2.04    0.69    0.30   -0.23    0.00    0.00      -1.45    0.62   -0.47
#   7   -0.36   -1.95    0.66    0.08   -0.22    0.00    0.00      -1.79    0.16   -0.47
#   8   -0.30   -1.85    0.54    0.15   -0.21    0.00    0.00      -1.67    0.34   -0.47
#   9   -0.16   -1.26    0.12   -0.03   -0.14    0.00    0.00      -1.47   -0.08   -0.34
#  10    1.49   -0.91    0.05    0.46    0.11    0.00    0.00       1.20    1.19    0.29
#  11   -1.10   -0.70    0.07   -0.28   -0.17    0.00    0.00      -2.19   -1.24   -0.76
#  12    0.93   -0.85    0.18    0.33    0.22    0.00    0.00       0.81    1.60    1.08
#  13    0.37   -0.38    0.01    0.14    0.15    0.00    0.00       0.28    0.88    0.94
#  14   -0.37   -0.49    0.03   -0.19   -0.36    0.00    0.00      -1.39   -1.06   -1.98
#  15   -0.60   -0.61    0.05   -0.27    0.19    0.00    0.00      -1.24   -1.21    0.83
#  16    1.36   -0.68    0.05    0.54   -0.11    0.00    0.00       1.16    2.17   -0.43
#  17   -4.21   -1.74    0.47   -1.22   -0.22    0.00    0.00      -6.92   -3.52   -0.63
#  18   13.54   -2.69    1.69    0.45    0.76    0.00    0.00      13.75    1.17    1.97
#  19    0.43   -2.87    1.34    2.46    0.16    0.00    0.00       1.52    5.99    0.39
#  20    0.08   -0.18    0.00    0.03   -0.01    0.00    0.00      -0.09    0.23   -0.12
#  21   -0.09   -0.29    0.02   -0.02   -0.03    0.00    0.00      -0.41   -0.14   -0.16
#  22   -0.14   -0.28    0.02   -0.10   -0.03    0.00    0.00      -0.54   -0.66   -0.17
#  23   -0.18   -0.10    0.00   -0.03   -0.01    0.00    0.00      -0.32   -0.41   -0.17
#  24   -0.70   -0.10    0.00    0.02   -0.03    0.00    0.00      -0.80    0.18   -0.28
#  25   -1.60   -0.18    0.02    0.01   -0.04    0.00    0.00      -1.79    0.09   -0.28
#  26   -0.78   -0.19    0.02   -0.01   -0.05    0.00    0.00      -1.02   -0.04   -0.28
#  27   -0.48   -0.28    0.03   -0.33   -0.06    0.00    0.00      -1.11   -1.09   -0.21
#  28    0.30   -0.50    0.18   -0.18   -0.13    0.00    0.00      -0.32   -0.37   -0.28
#  29    0.84   -0.38    0.12    0.14   -0.10    0.00    0.00       0.62    0.41   -0.28
#  30    1.04   -0.56    0.34    0.00   -0.10    0.00    0.00       0.72   -0.01   -0.28
#  31    0.43   -0.01    0.00    0.16    0.03    0.00    0.00       0.61    1.81    0.32
#  32    0.23   -0.01    0.00    0.15    0.11    0.00    0.00       0.47    0.76    0.58
#  33   -5.65   -0.02    0.00    0.11    0.15    0.00    0.00      -5.40    0.42    0.59
#  34  -10.27   -0.14    0.04   -0.03    0.26    0.00    0.00     -10.14   -0.06    0.60
#  35    0.09   -0.05    0.00    0.00   -0.01    0.00    0.00       0.02    0.00   -0.28
#  36    0.03   -0.14    0.02    0.07   -0.04    0.00    0.00      -0.07    0.47   -0.28
#  37    0.02   -0.13    0.01   -0.01   -0.04    0.00    0.00      -0.15   -0.08   -0.28
#  38    0.06   -0.05    0.00    0.02   -0.01    0.00    0.00       0.02    0.37   -0.20
#  39    0.03   -0.16    0.02    0.11   -0.04    0.00    0.00      -0.04    0.82   -0.28
#  40    0.07   -0.10    0.01    0.02   -0.03    0.00    0.00      -0.04    0.15   -0.28
#  41    0.09   -0.02    0.00    0.00   -0.01    0.00    0.00       0.06   -0.03   -0.28
#  42    0.10   -0.03    0.00    0.02   -0.01    0.00    0.00       0.08    0.70   -0.28
#  43    0.09   -0.03    0.00    0.01   -0.01    0.00    0.00       0.06    0.23   -0.20

@<TRIPOS>MOLECULE
             1480       100
   43    45     0     0     0



@<TRIPOS>ATOM
      1 C1         25.1135    19.5382    61.3838 C.3        1          -0.0792
      2 C2         24.4327    18.3468    62.0069 C.2        1           0.0747
      3 C3         24.9941    17.1254    62.1646 C.2        1          -0.1187
      4 C4         23.9667    16.2897    62.8128 C.ar       1          -0.1050
      5 C5         23.9172    14.9641    63.2352 C.ar       1          -0.0622
      6 C6         22.7690    14.4786    63.8222 C.ar       1          -0.1332
      7 C7         21.6680    15.3055    63.9916 C.ar       1          -0.0925
      8 C8         21.7052    16.6195    63.5773 C.ar       1          -0.1095
      9 C9         22.8541    17.1277    62.9831 C.ar       1           0.0508
     10 O1         23.1808    18.3411    62.4936 O.3        1          -0.1865
     11 C10        26.3603    16.7128    61.7668 C.2        1           0.2129
     12 N1         27.2990    16.2550    62.5618 N.2        1          -0.2788
     13 N2         28.4459    15.9763    61.8138 N.pl3      1          -0.3803
     14 C11        28.2238    16.2654    60.5171 C.2        1           0.4166
     15 N3         29.1259    16.1189    59.4831 N.pl3      1          -0.8444
     16 C12        26.9165    16.7332    60.4084 C.2        1          -0.3634
     17 C13        26.2342    17.1624    59.1844 C.2        1           0.6141
     18 N4         24.9594    17.5961    59.2401 N.am       1          -0.8482
     19 O2         26.8188    17.1271    58.1175 O.2        1          -0.5409
     20 C14        29.7000    15.4493    62.3575 C.3        1           0.1787
     21 C15        29.5581    15.2525    63.8683 C.3        1          -0.1403
     22 C16        30.0185    14.1069    61.6962 C.3        1          -0.1651
     23 C17        30.8333    16.4380    62.0764 C.3        1          -0.1671
     24 H1         26.1220    19.2610    61.0769 H          1           0.0817
     25 H2         24.5460    19.8666    60.5131 H          1           0.0892
     26 H3         25.1648    20.3487    62.1109 H          1           0.0962
     27 H4         24.7739    14.3197    63.1034 H          1           0.1374
     28 H5         22.7258    13.4509    64.1512 H          1           0.1299
     29 H6         20.7725    14.9155    64.4524 H          1           0.1355
     30 H7         20.8418    17.2537    63.7140 H          1           0.1324
     31 H8         30.0166    15.7785    59.6611 H          1           0.4034
     32 H9         28.8691    16.3561    58.5782 H          1           0.4170
     33 H10        24.4934    17.6243    60.0903 H          1           0.4004
     34 H11        24.5078    17.8802    58.4299 H          1           0.3998
     35 H12        30.4911    14.8604    64.2728 H          1           0.0706
     36 H13        29.3311    16.2087    64.3395 H          1           0.0732
     37 H14        28.7509    14.5480    64.0686 H          1           0.0706
     38 H15        30.9516    13.7150    62.1009 H          1           0.0604
     39 H16        29.2113    13.4024    61.8967 H          1           0.0843
     40 H17        30.1196    14.2469    60.6200 H          1           0.0701
     41 H18        31.7663    16.0460    62.4810 H          1           0.0704
     42 H19        30.9343    16.5784    61.0002 H          1           0.0844
     43 H20        30.6064    17.3943    62.5477 H          1           0.0607
@<TRIPOS>BOND
     1    1    2 1
     2    1   24 1
     3    1   25 1
     4    1   26 1
     5    2   10 1
     6    2    3 2
     7    3    4 1
     8    3   11 1
     9    4    9 ar
    10    4    5 ar
    11    5    6 ar
    12    5   27 1
    13    6    7 ar
    14    6   28 1
    15    7    8 ar
    16    7   29 1
    17    8    9 ar
    18    8   30 1
    19    9   10 1
    20   11   16 1
    21   11   12 2
    22   12   13 1
    23   13   14 1
    24   13   20 1
    25   14   15 1
    26   14   16 2
    27   15   31 1
    28   15   32 1
    29   16   17 1
    30   17   18 am
    31   17   19 2
    32   18   33 1
    33   18   34 1
    34   20   21 1
    35   20   22 1
    36   20   23 1
    37   21   35 1
    38   21   36 1
    39   21   37 1
    40   22   38 1
    41   22   39 1
    42   22   40 1
    43   23   41 1
    44   23   42 1
    45   23   43 1
##########                 Name:                 1480
##########          Protonation:                  100
##########               SMILES:   Cc1c(c2ccccc2o1)c3c(c(n(n3)C(C)(C)C)N)C(=O)N
##########            Long Name:   5-amino-1-tert-butyl-3-(2-methylbenzofuran-3-yl)pyrazole-4-carboxamide
##########          FlexRecCode: 1
##########               Number:                  201
##########   Ligand Source File: /raid1/people/rgc/Examples/tdt/part3/ligand22set/build/ligand22set-0000001.db2.g
##########           GlobalRank: 22
##########                 Rank:                    1
##########               Setnum:                    1
##########             Matchnum:                60475
##########                Cloud:                    1
##########        Electrostatic:             1.190766
##########        Van der Waals:           -20.727636
##########  Ligand Polar Desolv:             3.962752
########## Ligand Apolar Desolv:            -0.864809
##########      Internal Energy:             0.000000
##########      Receptor Energy: 0.0
########## Receptor Desolvation:             0.000000
########## Receptor Hydrophobic:             0.000000
##########         Total Energy: -16.44
##########        Ligand Charge:             0.000000
##########            Arbitrary:    +999.9990
##########     heavy atom count:   23
##########           pose count:   10
##########        Ligand Energy:             0.000000
# num electro vdwattr vdwrepu polsolv apolsol rdesolv rhydroe totalscore fullpol fullapo
#   1   -0.01   -1.19    0.56    0.01   -0.06    0.00    0.00      -0.70    0.04   -0.21
#   2   -0.02   -0.56    0.03   -0.08   -0.07    0.00    0.00      -0.70   -0.37   -0.33
#   3    0.16   -0.61    0.04    0.24   -0.09    0.00    0.00      -0.26    1.10   -0.43
#   4    0.00   -0.63    0.07    0.21   -0.08    0.00    0.00      -0.44    1.10   -0.44
#   5   -0.02   -1.61    0.58    0.23   -0.13    0.00    0.00      -0.95    0.81   -0.46
#   6   -0.11   -0.96    0.13    0.17   -0.13    0.00    0.00      -0.90    0.62   -0.47
#   7   -0.12   -0.37    0.02    0.03   -0.08    0.00    0.00      -0.53    0.16   -0.47
#   8   -0.13   -0.20    0.00    0.03   -0.04    0.00    0.00      -0.33    0.34   -0.47
#   9    0.05   -0.27    0.01   -0.01   -0.04    0.00    0.00      -0.26   -0.08   -0.34
#  10   -0.13   -0.28    0.01    0.16    0.04    0.00    0.00      -0.21    1.19    0.29
#  11   -0.74   -1.03    0.17   -0.34   -0.21    0.00    0.00      -2.14   -1.24   -0.76
#  12    1.67   -1.22    0.46    0.39    0.26    0.00    0.00       1.55    1.60    1.08
#  13    2.18   -1.20    0.20    0.28    0.30    0.00    0.00       1.75    0.88    0.94
#  14   -1.15   -1.42    0.25   -0.40   -0.75    0.00    0.00      -3.47   -1.06   -1.98
#  15    0.06   -1.59    0.28   -0.53    0.37    0.00    0.00      -1.41   -1.21    0.83
#  16    1.05   -1.49    0.29    0.83   -0.16    0.00    0.00       0.52    2.17   -0.43
#  17   -2.06   -2.54    1.25   -1.52   -0.27    0.00    0.00      -5.14   -3.52   -0.63
#  18    1.75   -2.00    0.59    0.46    0.78    0.00    0.00       1.59    1.17    1.97
#  19    1.54   -3.80    2.79    2.98    0.19    0.00    0.00       3.70    5.99    0.39
#  20   -1.38   -0.68    0.05    0.08   -0.04    0.00    0.00      -1.97    0.23   -0.12
#  21    1.49   -0.60    0.05   -0.04   -0.05    0.00    0.00       0.84   -0.14   -0.16
#  22    1.64   -0.79    0.15   -0.26   -0.07    0.00    0.00       0.67   -0.66   -0.17
#  23    0.64   -1.56    0.34   -0.19   -0.08    0.00    0.00      -0.84   -0.41   -0.17
#  24   -0.05   -0.35    0.14    0.05   -0.08    0.00    0.00      -0.29    0.18   -0.28
#  25    0.08   -0.31    0.15    0.02   -0.06    0.00    0.00      -0.12    0.09   -0.28
#  26    0.01   -0.92    1.03   -0.01   -0.10    0.00    0.00       0.01   -0.04   -0.28
#  27   -0.06   -1.12    1.40   -0.41   -0.08    0.00    0.00      -0.26   -1.09   -0.21
#  28   -0.04   -0.35    0.11   -0.12   -0.09    0.00    0.00      -0.48   -0.37   -0.28
#  29    0.17   -0.07    0.00    0.03   -0.02    0.00    0.00       0.11    0.41   -0.28
#  30    0.14   -0.02    0.00    0.00   -0.01    0.00    0.00       0.12   -0.01   -0.28
#  31    0.32   -0.02    0.00    0.49    0.09    0.00    0.00       0.88    1.81    0.32
#  32    0.46   -0.03    0.00    0.28    0.21    0.00    0.00       0.93    0.76    0.58
#  33   -0.40   -0.02    0.00    0.09    0.13    0.00    0.00      -0.20    0.42    0.59
#  34   -0.55   -0.03    0.00   -0.02    0.23    0.00    0.00      -0.38   -0.06    0.60
#  35   -0.99   -0.19    0.01    0.00   -0.05    0.00    0.00      -1.22    0.00   -0.28
#  36   -0.55   -0.31    0.10    0.10   -0.06    0.00    0.00      -0.72    0.47   -0.28
#  37   -0.86   -0.12    0.00   -0.01   -0.03    0.00    0.00      -1.02   -0.08   -0.28
#  38   -0.80   -0.20    0.01    0.09   -0.05    0.00    0.00      -0.94    0.37   -0.20
#  39   -1.09   -0.34    0.13    0.23   -0.08    0.00    0.00      -1.16    0.82   -0.28
#  40   -0.37   -0.33    0.19    0.04   -0.07    0.00    0.00      -0.54    0.15   -0.28
#  41   -0.42   -0.52    0.11   -0.01   -0.12    0.00    0.00      -0.97   -0.03   -0.28
#  42    0.03   -0.47    0.13    0.28   -0.11    0.00    0.00      -0.14    0.70   -0.28
#  43   -0.19   -1.13    0.87    0.11   -0.10    0.00    0.00      -0.43    0.23   -0.20

@<TRIPOS>MOLECULE
             1480       100
   43    45     0     0     0



@<TRIPOS>ATOM
      1 C1         27.9775    14.3154    60.3620 C.3        1          -0.0792
      2 C2         28.6126    14.6434    61.6888 C.2        1           0.0747
      3 C3         27.9734    15.2139    62.7365 C.2        1          -0.1187
      4 C4         28.9823    15.3409    63.8042 C.ar       1          -0.1050
      5 C5         28.9635    15.8378    65.1046 C.ar       1          -0.0622
      6 C6         30.1146    15.8092    65.8614 C.ar       1          -0.1332
      7 C7         31.2862    15.2885    65.3314 C.ar       1          -0.0925
      8 C8         31.3169    14.7939    64.0453 C.ar       1          -0.1095
      9 C9         30.1663    14.8139    63.2661 C.ar       1           0.0508
     10 O1         29.8957    14.4077    62.0089 O.3        1          -0.1865
     11 C10        26.5518    15.6265    62.7977 C.2        1           0.2129
     12 N1         26.0650    16.7988    62.4636 N.2        1          -0.2788
     13 N2         24.6818    16.8007    62.6608 N.pl3      1          -0.3803
     14 C11        24.2883    15.6011    63.1302 C.2        1           0.4166
     15 N3         22.9958    15.2317    63.4423 N.pl3      1          -0.8444
     16 C12        25.4218    14.7990    63.2375 C.2        1          -0.3634
     17 C13        25.4761    13.4091    63.6995 C.2        1           0.6141
     18 N4         26.6570    12.7617    63.7508 N.am       1          -0.8482
     19 O2         24.4548    12.8397    64.0368 O.2        1          -0.5409
     20 C14        23.7938    17.9356    62.3970 C.3        1           0.1787
     21 C15        24.6155    19.1152    61.8733 C.3        1          -0.1403
     22 C16        22.7518    17.5355    61.3505 C.3        1          -0.1651
     23 C17        23.0866    18.3416    63.6916 C.3        1          -0.1671
     24 H1         26.9292    14.6135    60.3774 H          1           0.0817
     25 H2         28.4964    14.8528    59.5682 H          1           0.0892
     26 H3         28.0478    13.2429    60.1809 H          1           0.0962
     27 H4         28.0519    16.2436    65.5179 H          1           0.1374
     28 H5         30.1049    16.1938    66.8706 H          1           0.1299
     29 H6         32.1833    15.2709    65.9324 H          1           0.1355
     30 H7         32.2349    14.3913    63.6431 H          1           0.1324
     31 H8         22.2696    15.8645    63.3282 H          1           0.4034
     32 H9         22.8135    14.3392    63.7757 H          1           0.4170
     33 H10        27.4711    13.2155    63.4821 H          1           0.4004
     34 H11        26.6929    11.8418    64.0567 H          1           0.3998
     35 H12        23.9548    19.9596    61.6770 H          1           0.0706
     36 H13        25.3579    19.4003    62.6187 H          1           0.0732
     37 H14        25.1193    18.8260    60.9509 H          1           0.0706
     38 H15        22.0911    18.3800    61.1543 H          1           0.0604
     39 H16        23.2555    17.2464    60.4282 H          1           0.0843
     40 H17        22.1664    16.6951    61.7235 H          1           0.0701
     41 H18        22.4259    19.1860    63.4952 H          1           0.0704
     42 H19        22.5012    17.5014    64.0648 H          1           0.0844
     43 H20        23.8290    18.6269    64.4370 H          1           0.0607
@<TRIPOS>BOND
     1    1    2 1
     2    1   24 1
     3    1   25 1
     4    1   26 1
     5    2   10 1
     6    2    3 2
     7    3    4 1
     8    3   11 1
     9    4    9 ar
    10    4    5 ar
    11    5    6 ar
    12    5   27 1
    13    6    7 ar
    14    6   28 1
    15    7    8 ar
    16    7   29 1
    17    8    9 ar
    18    8   30 1
    19    9   10 1
    20   11   16 1
    21   11   12 2
    22   12   13 1
    23   13   14 1
    24   13   20 1
    25   14   15 1
    26   14   16 2
    27   15   31 1
    28   15   32 1
    29   16   17 1
    30   17   18 am
    31   17   19 2
    32   18   33 1
    33   18   34 1
    34   20   21 1
    35   20   22 1
    36   20   23 1
    37   21   35 1
    38   21   36 1
    39   21   37 1
    40   22   38 1
    41   22   39 1
    42   22   40 1
    43   23   41 1
    44   23   42 1
    45   23   43 1
##########                 Name:                 1480
##########          Protonation:                  100
##########               SMILES:   Cc1c(c2ccccc2o1)c3c(c(n(n3)C(C)(C)C)N)C(=O)N
##########            Long Name:   5-amino-1-tert-butyl-3-(2-methylbenzofuran-3-yl)pyrazole-4-carboxamide
##########          FlexRecCode: 1
##########               Number:                  201
##########   Ligand Source File: /raid1/people/rgc/Examples/tdt/part3/ligand22set/build/ligand22set-0000001.db2.g
##########           GlobalRank: 22
##########                 Rank:                    2
##########               Setnum:                   10
##########             Matchnum:                 3244
##########                Cloud:                    1
##########        Electrostatic:             3.148134
##########        Van der Waals:           -22.070635
##########  Ligand Polar Desolv:             5.746438
########## Ligand Apolar Desolv:            -1.976180
##########      Internal Energy:             0.000000
##########      Receptor Energy: 0.0
########## Receptor Desolvation:             0.000000
########## Receptor Hydrophobic:             0.000000
##########         Total Energy: -15.15
##########        Ligand Charge:             0.000000
##########            Arbitrary:    +999.9990
##########     heavy atom count:   23
##########           pose count:   10
##########        Ligand Energy:             0.000000
# num electro vdwattr vdwrepu polsolv apolsol rdesolv rhydroe totalscore fullpol fullapo
#   1    0.19   -2.66    1.50    0.02   -0.11    0.00    0.00      -1.04    0.04   -0.21
#   2   -0.46   -1.67    0.29   -0.15   -0.13    0.00    0.00      -2.12   -0.37   -0.33
#   3    0.63   -1.08    0.10    0.40   -0.16    0.00    0.00      -0.11    1.10   -0.43
#   4    0.82   -0.82    0.06    0.32   -0.13    0.00    0.00       0.25    1.10   -0.44
#   5    0.38   -1.13    0.17    0.28   -0.16    0.00    0.00      -0.46    0.81   -0.46
#   6    0.63   -1.23    0.22    0.20   -0.15    0.00    0.00      -0.34    0.62   -0.47
#   7    0.55   -0.73    0.05    0.04   -0.12    0.00    0.00      -0.22    0.16   -0.47
#   8    0.93   -0.58    0.03    0.07   -0.10    0.00    0.00       0.35    0.34   -0.47
#   9   -0.48   -0.77    0.07   -0.02   -0.09    0.00    0.00      -1.29   -0.08   -0.34
#  10    1.64   -1.15    0.19    0.38    0.09    0.00    0.00       1.15    1.19    0.29
#  11   -0.30   -1.41    0.34   -0.50   -0.31    0.00    0.00      -2.17   -1.24   -0.76
#  12   -0.42   -1.75    0.93    0.68    0.46    0.00    0.00      -0.10    1.60    1.08
#  13   -1.25   -1.78    0.68    0.50    0.53    0.00    0.00      -1.33    0.88    0.94
#  14    0.90   -2.07    0.50   -0.57   -1.07    0.00    0.00      -2.32   -1.06   -1.98
#  15   -4.55   -4.35    2.64   -0.74    0.51    0.00    0.00      -6.49   -1.21    0.83
#  16    0.19   -1.83    0.46    1.01   -0.20    0.00    0.00      -0.37    2.17   -0.43
#  17   -1.11   -2.40    1.09   -1.53   -0.27    0.00    0.00      -4.21   -3.52   -0.63
#  18    2.04   -1.77    0.48    0.42    0.70    0.00    0.00       1.88    1.17    1.97
#  19    1.13   -3.21    1.79    2.82    0.18    0.00    0.00       2.72    5.99    0.39
#  20    0.92   -1.23    0.23    0.14   -0.07    0.00    0.00      -0.01    0.23   -0.12
#  21   -1.24   -1.60    0.55   -0.08   -0.09    0.00    0.00      -2.45   -0.14   -0.16
#  22   -0.54   -2.33    1.12   -0.42   -0.11    0.00    0.00      -2.28   -0.66   -0.17
#  23   -0.81   -1.72    0.78   -0.24   -0.10    0.00    0.00      -2.09   -0.41   -0.17
#  24    0.18   -0.99    1.39    0.09   -0.13    0.00    0.00       0.54    0.18   -0.28
#  25   -0.16   -1.89    2.62    0.05   -0.16    0.00    0.00       0.46    0.09   -0.28
#  26   -0.52   -0.88    0.42   -0.02   -0.14    0.00    0.00      -1.13   -0.04   -0.28
#  27   -0.67   -0.32    0.07   -0.37   -0.07    0.00    0.00      -1.37   -1.09   -0.21
#  28   -0.10   -0.55    0.51   -0.11   -0.08    0.00    0.00      -0.33   -0.37   -0.28
#  29   -0.38   -0.13    0.01    0.06   -0.04    0.00    0.00      -0.49    0.41   -0.28
#  30   -0.94   -0.08    0.00    0.00   -0.02    0.00    0.00      -1.04   -0.01   -0.28
#  31    2.42   -0.07    0.00    1.08    0.19    0.00    0.00       3.62    1.81    0.32
#  32    2.03   -0.13    0.02    0.44    0.33    0.00    0.00       2.70    0.76    0.58
#  33   -1.64   -0.02    0.00    0.09    0.13    0.00    0.00      -1.44    0.42    0.59
#  34   -0.71   -0.02    0.00   -0.01    0.14    0.00    0.00      -0.61   -0.06    0.60
#  35    0.70   -0.77    0.59    0.00   -0.13    0.00    0.00       0.38    0.00   -0.28
#  36    1.10   -0.37    0.08    0.19   -0.11    0.00    0.00       0.88    0.47   -0.28
#  37    0.38   -0.75    0.51   -0.04   -0.13    0.00    0.00      -0.03   -0.08   -0.28
#  38    0.26   -1.38    2.89    0.24   -0.13    0.00    0.00       1.87    0.37   -0.20
#  39    0.24   -1.21    2.90    0.51   -0.17    0.00    0.00       2.26    0.82   -0.28
#  40    0.17   -0.75    0.25    0.10   -0.18    0.00    0.00      -0.41    0.15   -0.28
#  41    0.28   -0.81    0.84   -0.01   -0.13    0.00    0.00       0.17   -0.03   -0.28
#  42    0.26   -0.96    2.16    0.37   -0.15    0.00    0.00       1.68    0.70   -0.28
#  43    0.45   -0.51    0.23    0.10   -0.08    0.00    0.00       0.18    0.23   -0.20

@<TRIPOS>MOLECULE
             1480       100
   43    45     0     0     0



@<TRIPOS>ATOM
      1 C1         22.6542    18.6900    64.2004 C.3        1          -0.0792
      2 C2         23.6122    18.2595    63.1197 C.2        1           0.0747
      3 C3         23.6802    17.0150    62.5920 C.2        1          -0.1187
      4 C4         24.7511    17.0639    61.5796 C.ar       1          -0.1050
      5 C5         25.3032    16.1332    60.7038 C.ar       1          -0.0622
      6 C6         26.3258    16.5131    59.8618 C.ar       1          -0.1332
      7 C7         26.8029    17.8156    59.8863 C.ar       1          -0.0925
      8 C8         26.2642    18.7456    60.7491 C.ar       1          -0.1095
      9 C9         25.2324    18.3817    61.6060 C.ar       1           0.0508
     10 O1         24.5214    19.0554    62.5331 O.3        1          -0.1865
     11 C10        22.8495    15.8439    62.9572 C.2        1           0.2129
     12 N1         21.5432    15.7550    62.8640 N.2        1          -0.2788
     13 N2         21.1310    14.4945    63.3040 N.pl3      1          -0.3803
     14 C11        22.2031    13.7727    63.6832 C.2        1           0.4166
     15 N3         22.1857    12.4826    64.1729 N.pl3      1          -0.8444
     16 C12        23.3331    14.5625    63.4855 C.2        1          -0.3634
     17 C13        24.7251    14.1901    63.7537 C.2        1           0.6141
     18 N4         25.7166    15.0704    63.5121 N.am       1          -0.8482
     19 O2         24.9855    13.0861    64.1945 O.2        1          -0.5409
     20 C14        19.7427    14.0285    63.3466 C.3        1           0.1787
     21 C15        18.8175    15.1347    62.8354 C.3        1          -0.1403
     22 C16        19.5933    12.7893    62.4617 C.3        1          -0.1651
     23 C17        19.3673    13.6749    64.7870 C.3        1          -0.1671
     24 H1         22.0316    17.8442    64.4922 H          1           0.0817
     25 H2         23.2165    19.0428    65.0648 H          1           0.0892
     26 H3         22.0214    19.4945    63.8254 H          1           0.0962
     27 H4         24.9325    15.1190    60.6843 H          1           0.1374
     28 H5         26.7574    15.7946    59.1810 H          1           0.1299
     29 H6         27.6048    18.1035    59.2228 H          1           0.1355
     30 H7         26.6441    19.7565    60.7595 H          1           0.1324
     31 H8         21.3430    12.0121    64.2701 H          1           0.4034
     32 H9         23.0161    12.0463    64.4198 H          1           0.4170
     33 H10        25.5091    15.9504    63.1608 H          1           0.4004
     34 H11        26.6378    14.8239    63.6897 H          1           0.3998
     35 H12        17.7846    14.7879    62.8670 H          1           0.0706
     36 H13        18.9238    16.0176    63.4656 H          1           0.0732
     37 H14        19.0849    15.3865    61.8090 H          1           0.0706
     38 H15        18.5604    12.4426    62.4934 H          1           0.0604
     39 H16        19.8606    13.0412    61.4354 H          1           0.0843
     40 H17        20.2524    12.0012    62.8257 H          1           0.0701
     41 H18        18.3344    13.3282    64.8186 H          1           0.0704
     42 H19        20.0263    12.8869    65.1513 H          1           0.0844
     43 H20        19.4735    14.5578    65.4173 H          1           0.0607
@<TRIPOS>BOND
     1    1    2 1
     2    1   24 1
     3    1   25 1
     4    1   26 1
     5    2   10 1
     6    2    3 2
     7    3    4 1
     8    3   11 1
     9    4    9 ar
    10    4    5 ar
    11    5    6 ar
    12    5   27 1
    13    6    7 ar
    14    6   28 1
    15    7    8 ar
    16    7   29 1
    17    8    9 ar
    18    8   30 1
    19    9   10 1
    20   11   16 1
    21   11   12 2
    22   12   13 1
    23   13   14 1
    24   13   20 1
    25   14   15 1
    26   14   16 2
    27   15   31 1
    28   15   32 1
    29   16   17 1
    30   17   18 am
    31   17   19 2
    32   18   33 1
    33   18   34 1
    34   20   21 1
    35   20   22 1
    36   20   23 1
    37   21   35 1
    38   21   36 1
    39   21   37 1
    40   22   38 1
    41   22   39 1
    42   22   40 1
    43   23   41 1
    44   23   42 1
    45   23   43 1
##########                 Name:                 1480
##########          Protonation:                  100
##########               SMILES:   Cc1c(c2ccccc2o1)c3c(c(n(n3)C(C)(C)C)N)C(=O)N
##########            Long Name:   5-amino-1-tert-butyl-3-(2-methylbenzofuran-3-yl)pyrazole-4-carboxamide
##########          FlexRecCode: 1
##########               Number:                  201
##########   Ligand Source File: /raid1/people/rgc/Examples/tdt/part3/ligand22set/build/ligand22set-0000001.db2.g
##########           GlobalRank: 22
##########                 Rank:                    3
##########               Setnum:                    2
##########             Matchnum:                60475
##########                Cloud:                    1
##########        Electrostatic:             1.456616
##########        Van der Waals:           -19.172422
##########  Ligand Polar Desolv:             4.185145
########## Ligand Apolar Desolv:            -1.088084
##########      Internal Energy:             0.000000
##########      Receptor Energy: 0.0
########## Receptor Desolvation:             0.000000
########## Receptor Hydrophobic:             0.000000
##########         Total Energy: -14.62
##########        Ligand Charge:             0.000000
##########            Arbitrary:    +999.9990
##########     heavy atom count:   23
##########           pose count:   10
##########        Ligand Energy:             0.000000
# num electro vdwattr vdwrepu polsolv apolsol rdesolv rhydroe totalscore fullpol fullapo
#   1    0.01   -1.45    0.75    0.01   -0.06    0.00    0.00      -0.74    0.04   -0.21
#   2   -0.01   -0.63    0.06   -0.07   -0.06    0.00    0.00      -0.70   -0.37   -0.33
#   3    0.16   -0.61    0.04    0.24   -0.09    0.00    0.00      -0.26    1.10   -0.43
#   4    0.02   -0.59    0.04    0.23   -0.09    0.00    0.00      -0.39    1.10   -0.44
#   5   -0.03   -1.77    0.80    0.24   -0.14    0.00    0.00      -0.90    0.81   -0.46
#   6   -0.12   -2.71    1.84    0.21   -0.16    0.00    0.00      -0.94    0.62   -0.47
#   7   -0.10   -1.13    0.27    0.04   -0.13    0.00    0.00      -1.04    0.16   -0.47
#   8   -0.11   -0.41    0.03    0.05   -0.07    0.00    0.00      -0.52    0.34   -0.47
#   9    0.04   -0.34    0.01   -0.01   -0.04    0.00    0.00      -0.35   -0.08   -0.34
#  10   -0.16   -0.22    0.00    0.14    0.03    0.00    0.00      -0.21    1.19    0.29
#  11   -0.74   -1.03    0.17   -0.34   -0.21    0.00    0.00      -2.14   -1.24   -0.76
#  12    1.67   -1.22    0.46    0.39    0.26    0.00    0.00       1.55    1.60    1.08
#  13    2.18   -1.20    0.20    0.28    0.30    0.00    0.00       1.75    0.88    0.94
#  14   -1.15   -1.42    0.25   -0.40   -0.75    0.00    0.00      -3.47   -1.06   -1.98
#  15    0.06   -1.59    0.28   -0.53    0.37    0.00    0.00      -1.41   -1.21    0.83
#  16    1.05   -1.49    0.29    0.83   -0.16    0.00    0.00       0.52    2.17   -0.43
#  17   -2.06   -2.54    1.25   -1.52   -0.27    0.00    0.00      -5.14   -3.52   -0.63
#  18    1.75   -2.00    0.59    0.46    0.78    0.00    0.00       1.59    1.17    1.97
#  19    1.54   -3.80    2.79    2.98    0.19    0.00    0.00       3.70    5.99    0.39
#  20   -1.38   -0.68    0.05    0.08   -0.04    0.00    0.00      -1.97    0.23   -0.12
#  21    1.49   -0.60    0.05   -0.04   -0.05    0.00    0.00       0.84   -0.14   -0.16
#  22    1.64   -0.79    0.15   -0.26   -0.07    0.00    0.00       0.67   -0.66   -0.17
#  23    0.64   -1.56    0.34   -0.19   -0.08    0.00    0.00      -0.84   -0.41   -0.17
#  24   -0.16   -1.46    2.94    0.07   -0.11    0.00    0.00       1.28    0.18   -0.28
#  25    0.09   -0.45    0.34    0.03   -0.09    0.00    0.00      -0.09    0.09   -0.28
#  26    0.05   -0.29    0.08   -0.01   -0.06    0.00    0.00      -0.23   -0.04   -0.28
#  27    0.08   -0.61    0.71   -0.32   -0.06    0.00    0.00      -0.20   -1.09   -0.21
#  28    0.12   -1.34    2.31   -0.17   -0.13    0.00    0.00       0.79   -0.37   -0.28
#  29    0.18   -0.28    0.11    0.10   -0.07    0.00    0.00       0.04    0.41   -0.28
#  30    0.14   -0.04    0.00    0.00   -0.01    0.00    0.00       0.10   -0.01   -0.28
#  31    0.32   -0.02    0.00    0.49    0.09    0.00    0.00       0.88    1.81    0.32
#  32    0.46   -0.03    0.00    0.28    0.21    0.00    0.00       0.93    0.76    0.58
#  33   -0.40   -0.02    0.00    0.09    0.13    0.00    0.00      -0.20    0.42    0.59
#  34   -0.55   -0.03    0.00   -0.02    0.23    0.00    0.00      -0.38   -0.06    0.60
#  35   -0.99   -0.19    0.01    0.00   -0.05    0.00    0.00      -1.22    0.00   -0.28
#  36   -0.55   -0.31    0.10    0.10   -0.06    0.00    0.00      -0.72    0.47   -0.28
#  37   -0.86   -0.12    0.00   -0.01   -0.03    0.00    0.00      -1.02   -0.08   -0.28
#  38   -0.80   -0.20    0.01    0.09   -0.05    0.00    0.00      -0.94    0.37   -0.20
#  39   -1.09   -0.34    0.13    0.23   -0.08    0.00    0.00      -1.16    0.82   -0.28
#  40   -0.37   -0.33    0.19    0.04   -0.07    0.00    0.00      -0.54    0.15   -0.28
#  41   -0.42   -0.52    0.11   -0.01   -0.12    0.00    0.00      -0.97   -0.03   -0.28
#  42    0.03   -0.47    0.13    0.28   -0.11    0.00    0.00      -0.14    0.70   -0.28
#  43   -0.19   -1.13    0.87    0.11   -0.10    0.00    0.00      -0.43    0.23   -0.20

@<TRIPOS>MOLECULE
             1480       100
   43    45     0     0     0



@<TRIPOS>ATOM
      1 C1         28.6452    15.9161    65.0819 C.3        1          -0.0792
      2 C2         28.8992    15.3301    63.7169 C.2        1           0.0747
      3 C3         27.9734    15.2139    62.7365 C.2        1          -0.1187
      4 C4         28.6699    14.5919    61.5954 C.ar       1          -0.1050
      5 C5         28.2854    14.2120    60.3124 C.ar       1          -0.0622
      6 C6         29.2092    13.6384    59.4662 C.ar       1          -0.1332
      7 C7         30.5154    13.4399    59.8897 C.ar       1          -0.0925
      8 C8         30.9076    13.8118    61.1575 C.ar       1          -0.1095
      9 C9         29.9904    14.3920    62.0257 C.ar       1           0.0508
     10 O1         30.0794    14.8508    63.2907 O.3        1          -0.1865
     11 C10        26.5518    15.6265    62.7977 C.2        1           0.2129
     12 N1         26.0650    16.7988    62.4636 N.2        1          -0.2788
     13 N2         24.6818    16.8007    62.6608 N.pl3      1          -0.3803
     14 C11        24.2883    15.6011    63.1302 C.2        1           0.4166
     15 N3         22.9958    15.2317    63.4423 N.pl3      1          -0.8444
     16 C12        25.4218    14.7990    63.2375 C.2        1          -0.3634
     17 C13        25.4761    13.4091    63.6995 C.2        1           0.6141
     18 N4         26.6570    12.7617    63.7508 N.am       1          -0.8482
     19 O2         24.4548    12.8397    64.0368 O.2        1          -0.5409
     20 C14        23.7938    17.9356    62.3970 C.3        1           0.1787
     21 C15        24.6155    19.1152    61.8733 C.3        1          -0.1403
     22 C16        22.7518    17.5355    61.3505 C.3        1          -0.1651
     23 C17        23.0866    18.3416    63.6916 C.3        1          -0.1671
     24 H1         27.6026    16.2249    65.1565 H          1           0.0817
     25 H2         28.8576    15.1665    65.8442 H          1           0.0892
     26 H3         29.2919    16.7806    65.2322 H          1           0.0962
     27 H4         27.2686    14.3659    59.9821 H          1           0.1374
     28 H5         28.9155    13.3419    58.4702 H          1           0.1299
     29 H6         31.2320    12.9892    59.2191 H          1           0.1355
     30 H7         31.9270    13.6520    61.4763 H          1           0.1324
     31 H8         22.2696    15.8645    63.3282 H          1           0.4034
     32 H9         22.8135    14.3392    63.7757 H          1           0.4170
     33 H10        27.4711    13.2155    63.4821 H          1           0.4004
     34 H11        26.6929    11.8418    64.0567 H          1           0.3998
     35 H12        23.9548    19.9596    61.6770 H          1           0.0706
     36 H13        25.3579    19.4003    62.6187 H          1           0.0732
     37 H14        25.1193    18.8260    60.9509 H          1           0.0706
     38 H15        22.0911    18.3800    61.1543 H          1           0.0604
     39 H16        23.2555    17.2464    60.4282 H          1           0.0843
     40 H17        22.1664    16.6951    61.7235 H          1           0.0701
     41 H18        22.4259    19.1860    63.4952 H          1           0.0704
     42 H19        22.5012    17.5014    64.0648 H          1           0.0844
     43 H20        23.8290    18.6269    64.4370 H          1           0.0607
@<TRIPOS>BOND
     1    1    2 1
     2    1   24 1
     3    1   25 1
     4    1   26 1
     5    2   10 1
     6    2    3 2
     7    3    4 1
     8    3   11 1
     9    4    9 ar
    10    4    5 ar
    11    5    6 ar
    12    5   27 1
    13    6    7 ar
    14    6   28 1
    15    7    8 ar
    16    7   29 1
    17    8    9 ar
    18    8   30 1
    19    9   10 1
    20   11   16 1
    21   11   12 2
    22   12   13 1
    23   13   14 1
    24   13   20 1
    25   14   15 1
    26   14   16 2
    27   15   31 1
    28   15   32 1
    29   16   17 1
    30   17   18 am
    31   17   19 2
    32   18   33 1
    33   18   34 1
    34   20   21 1
    35   20   22 1
    36   20   23 1
    37   21   35 1
    38   21   36 1
    39   21   37 1
    40   22   38 1
    41   22   39 1
    42   22   40 1
    43   23   41 1
    44   23   42 1
    45   23   43 1
##########                 Name:                 1480
##########          Protonation:                  100
##########               SMILES:   Cc1c(c2ccccc2o1)c3c(c(n(n3)C(C)(C)C)N)C(=O)N
##########            Long Name:   5-amino-1-tert-butyl-3-(2-methylbenzofuran-3-yl)pyrazole-4-carboxamide
##########          FlexRecCode: 1
##########               Number:                  201
##########   Ligand Source File: /raid1/people/rgc/Examples/tdt/part3/ligand22set/build/ligand22set-0000001.db2.g
##########           GlobalRank: 22
##########                 Rank:                    4
##########               Setnum:                   10
##########             Matchnum:                13981
##########                Cloud:                    1
##########        Electrostatic:             2.452833
##########        Van der Waals:           -18.786438
##########  Ligand Polar Desolv:             5.844726
########## Ligand Apolar Desolv:            -1.893046
##########      Internal Energy:             0.000000
##########      Receptor Energy: 0.0
########## Receptor Desolvation:             0.000000
########## Receptor Hydrophobic:             0.000000
##########         Total Energy: -12.38
##########        Ligand Charge:             0.000000
##########            Arbitrary:    +999.9990
##########     heavy atom count:   23
##########           pose count:   10
##########        Ligand Energy:             0.000000
# num electro vdwattr vdwrepu polsolv apolsol rdesolv rhydroe totalscore fullpol fullapo
#   1    0.20   -2.49    1.39    0.02   -0.11    0.00    0.00      -1.00    0.04   -0.21
#   2   -0.44   -1.61    0.25   -0.15   -0.13    0.00    0.00      -2.08   -0.37   -0.33
#   3    0.58   -1.11    0.11    0.41   -0.16    0.00    0.00      -0.17    1.10   -0.43
#   4    0.76   -0.84    0.06    0.32   -0.13    0.00    0.00       0.18    1.10   -0.44
#   5    0.35   -1.06    0.13    0.28   -0.16    0.00    0.00      -0.47    0.81   -0.46
#   6    0.52   -1.10    0.19    0.19   -0.15    0.00    0.00      -0.35    0.62   -0.47
#   7    0.46   -0.64    0.03    0.04   -0.12    0.00    0.00      -0.23    0.16   -0.47
#   8    0.84   -0.56    0.03    0.07   -0.10    0.00    0.00       0.28    0.34   -0.47
#   9   -0.46   -0.80    0.09   -0.02   -0.09    0.00    0.00      -1.28   -0.08   -0.34
#  10    1.63   -1.15    0.19    0.38    0.09    0.00    0.00       1.14    1.19    0.29
#  11   -0.22   -1.44    0.37   -0.51   -0.31    0.00    0.00      -2.11   -1.24   -0.76
#  12   -0.47   -1.81    1.08    0.68    0.46    0.00    0.00      -0.06    1.60    1.08
#  13   -1.35   -1.76    0.60    0.50    0.53    0.00    0.00      -1.47    0.88    0.94
#  14    1.12   -2.08    0.48   -0.59   -1.10    0.00    0.00      -2.17   -1.06   -1.98
#  15   -4.66   -4.29    2.48   -0.76    0.52    0.00    0.00      -6.71   -1.21    0.83
#  16   -0.04   -1.95    0.59    1.03   -0.20    0.00    0.00      -0.57    2.17   -0.43
#  17   -0.57   -3.06    2.43   -1.59   -0.28    0.00    0.00      -3.07   -3.52   -0.63
#  18    1.48   -2.35    1.10    0.44    0.75    0.00    0.00       1.41    1.17    1.97
#  19    0.33   -4.26    4.35    2.93    0.19    0.00    0.00       3.55    5.99    0.39
#  20    0.94   -1.28    0.27    0.14   -0.07    0.00    0.00      -0.01    0.23   -0.12
#  21   -1.20   -1.84    0.89   -0.08   -0.09    0.00    0.00      -2.32   -0.14   -0.16
#  22   -0.55   -2.42    1.22   -0.43   -0.11    0.00    0.00      -2.29   -0.66   -0.17
#  23   -0.85   -1.67    0.62   -0.24   -0.10    0.00    0.00      -2.25   -0.41   -0.17
#  24    0.20   -0.97    1.52    0.08   -0.13    0.00    0.00       0.70    0.18   -0.28
#  25   -0.18   -1.69    2.00    0.05   -0.16    0.00    0.00       0.03    0.09   -0.28
#  26   -0.57   -0.80    0.35   -0.02   -0.13    0.00    0.00      -1.17   -0.04   -0.28
#  27   -0.65   -0.30    0.05   -0.37   -0.07    0.00    0.00      -1.33   -1.09   -0.21
#  28   -0.05   -0.48    0.46   -0.10   -0.08    0.00    0.00      -0.25   -0.37   -0.28
#  29   -0.30   -0.10    0.00    0.05   -0.03    0.00    0.00      -0.38    0.41   -0.28
#  30   -0.86   -0.08    0.00    0.00   -0.02    0.00    0.00      -0.96   -0.01   -0.28
#  31    2.02   -0.07    0.00    1.08    0.19    0.00    0.00       3.22    1.81    0.32
#  32    2.52   -0.13    0.03    0.45    0.34    0.00    0.00       3.20    0.76    0.58
#  33   -1.44   -0.02    0.00    0.10    0.14    0.00    0.00      -1.23    0.42    0.59
#  34   -0.47   -0.03    0.00   -0.02    0.17    0.00    0.00      -0.35   -0.06    0.60
#  35    0.69   -0.98    1.15    0.00   -0.14    0.00    0.00       0.72    0.00   -0.28
#  36    1.07   -0.39    0.09    0.19   -0.12    0.00    0.00       0.85    0.47   -0.28
#  37    0.35   -0.89    0.78   -0.04   -0.14    0.00    0.00       0.06   -0.08   -0.28
#  38    0.27   -1.59    4.26    0.24   -0.13    0.00    0.00       3.05    0.37   -0.20
#  39    0.24   -1.13    2.16    0.52   -0.18    0.00    0.00       1.61    0.82   -0.28
#  40    0.14   -0.76    0.26    0.10   -0.18    0.00    0.00      -0.44    0.15   -0.28
#  41    0.34   -0.98    1.73   -0.01   -0.13    0.00    0.00       0.95   -0.03   -0.28
#  42    0.24   -0.89    1.63    0.36   -0.15    0.00    0.00       1.20    0.70   -0.28
#  43    0.48   -0.43    0.12    0.10   -0.08    0.00    0.00       0.17    0.23   -0.20

@<TRIPOS>MOLECULE
             1480       100
   43    45     0     0     0



@<TRIPOS>ATOM
      1 C1         22.5326    18.6783    64.1106 C.3        1          -0.0792
      2 C2         23.5498    18.1836    63.1147 C.2        1           0.0747
      3 C3         23.6312    16.9142    62.6523 C.2        1          -0.1187
      4 C4         24.7643    16.9002    61.7090 C.ar       1          -0.1050
      5 C5         25.3557    15.9212    60.9153 C.ar       1          -0.0622
      6 C6         26.4351    16.2468    60.1230 C.ar       1          -0.1332
      7 C7         26.9302    17.5427    60.1157 C.ar       1          -0.0925
      8 C8         26.3531    18.5202    60.8972 C.ar       1          -0.1095
      9 C9         25.2637    18.2115    61.7031 C.ar       1           0.0508
     10 O1         24.5065    18.9384    62.5499 O.3        1          -0.1865
     11 C10        22.7608    15.7729    63.0193 C.2        1           0.2129
     12 N1         21.4617    15.6962    62.8476 N.2        1          -0.2788
     13 N2         21.0027    14.4639    63.3200 N.pl3      1          -0.3803
     14 C11        22.0374    13.7478    63.8006 C.2        1           0.4166
     15 N3         21.9688    12.4833    64.3490 N.pl3      1          -0.8444
     16 C12        23.1899    14.5125    63.6377 C.2        1          -0.3634
     17 C13        24.5562    14.1359    64.0113 C.2        1           0.6141
     18 N4         25.5748    14.9907    63.7917 N.am       1          -0.8482
     19 O2         24.7709    13.0514    64.5199 O.2        1          -0.5409
     20 C14        19.6074    14.0182    63.2963 C.3        1           0.1787
     21 C15        18.7337    15.1100    62.6751 C.3        1          -0.1403
     22 C16        19.4944    12.7396    62.4637 C.3        1          -0.1651
     23 C17        19.1365    13.7398    64.7251 C.3        1          -0.1671
     24 H1         21.8796    17.8556    64.4021 H          1           0.0817
     25 H2         23.0449    19.0653    64.9913 H          1           0.0892
     26 H3         21.9375    19.4716    63.6583 H          1           0.0962
     27 H4         24.9710    14.9120    60.9206 H          1           0.1374
     28 H5         26.8973    15.4906    59.5060 H          1           0.1299
     29 H6         27.7768    17.7878    59.4916 H          1           0.1355
     30 H7         26.7475    19.5256    60.8836 H          1           0.1324
     31 H8         21.1143    12.0288    64.4147 H          1           0.4034
     32 H9         22.7750    12.0489    64.6687 H          1           0.4170
     33 H10        25.4037    15.8552    63.3864 H          1           0.4004
     34 H11        26.4790    14.7415    64.0391 H          1           0.3998
     35 H12        17.6956    14.7783    62.6575 H          1           0.0706
     36 H13        18.8141    16.0210    63.2682 H          1           0.0732
     37 H14        19.0691    15.3083    61.6570 H          1           0.0706
     38 H15        18.4562    12.4080    62.4461 H          1           0.0604
     39 H16        19.8297    12.9380    61.4457 H          1           0.0843
     40 H17        20.1168    11.9618    62.9060 H          1           0.0701
     41 H18        18.0983    13.4082    64.7074 H          1           0.0704
     42 H19        19.7588    12.9621    65.1677 H          1           0.0844
     43 H20        19.2168    14.6508    65.3181 H          1           0.0607
@<TRIPOS>BOND
     1    1    2 1
     2    1   24 1
     3    1   25 1
     4    1   26 1
     5    2   10 1
     6    2    3 2
     7    3    4 1
     8    3   11 1
     9    4    9 ar
    10    4    5 ar
    11    5    6 ar
    12    5   27 1
    13    6    7 ar
    14    6   28 1
    15    7    8 ar
    16    7   29 1
    17    8    9 ar
    18    8   30 1
    19    9   10 1
    20   11   16 1
    21   11   12 2
    22   12   13 1
    23   13   14 1
    24   13   20 1
    25   14   15 1
    26   14   16 2
    27   15   31 1
    28   15   32 1
    29   16   17 1
    30   17   18 am
    31   17   19 2
    32   18   33 1
    33   18   34 1
    34   20   21 1
    35   20   22 1
    36   20   23 1
    37   21   35 1
    38   21   36 1
    39   21   37 1
    40   22   38 1
    41   22   39 1
    42   22   40 1
    43   23   41 1
    44   23   42 1
    45   23   43 1
##########                 Name:                 1480
##########          Protonation:                  100
##########               SMILES:   Cc1c(c2ccccc2o1)c3c(c(n(n3)C(C)(C)C)N)C(=O)N
##########            Long Name:   5-amino-1-tert-butyl-3-(2-methylbenzofuran-3-yl)pyrazole-4-carboxamide
##########          FlexRecCode: 1
##########               Number:                  201
##########   Ligand Source File: /raid1/people/rgc/Examples/tdt/part3/ligand22set/build/ligand22set-0000001.db2.g
##########           GlobalRank: 22
##########                 Rank:                    5
##########               Setnum:                   16
##########             Matchnum:                13549
##########                Cloud:                    1
##########        Electrostatic:             1.156368
##########        Van der Waals:           -15.915416
##########  Ligand Polar Desolv:             5.796108
########## Ligand Apolar Desolv:            -1.933594
##########      Internal Energy:             0.000000
##########      Receptor Energy: 0.0
########## Receptor Desolvation:             0.000000
########## Receptor Hydrophobic:             0.000000
##########         Total Energy: -10.9
##########        Ligand Charge:             0.000000
##########            Arbitrary:    +999.9990
##########     heavy atom count:   23
##########           pose count:   10
##########        Ligand Energy:             0.000000
# num electro vdwattr vdwrepu polsolv apolsol rdesolv rhydroe totalscore fullpol fullapo
#   1    0.27   -2.47    1.06    0.02   -0.10    0.00    0.00      -1.22    0.04   -0.21
#   2   -0.42   -2.21    1.05   -0.14   -0.13    0.00    0.00      -1.85   -0.37   -0.33
#   3    0.47   -1.20    0.14    0.40   -0.16    0.00    0.00      -0.35    1.10   -0.43
#   4    0.53   -0.94    0.08    0.37   -0.15    0.00    0.00      -0.12    1.10   -0.44
#   5    0.29   -1.35    0.21    0.32   -0.18    0.00    0.00      -0.72    0.81   -0.46
#   6    0.29   -1.46    0.32    0.22   -0.17    0.00    0.00      -0.80    0.62   -0.47
#   7    0.15   -0.67    0.05    0.04   -0.11    0.00    0.00      -0.54    0.16   -0.47
#   8    0.37   -0.58    0.05    0.06   -0.09    0.00    0.00      -0.18    0.34   -0.47
#   9   -0.31   -1.11    0.38   -0.02   -0.08    0.00    0.00      -1.14   -0.08   -0.34
#  10    1.71   -3.05    6.10    0.34    0.08    0.00    0.00       5.19    1.19    0.29
#  11   -0.15   -1.49    0.48   -0.51   -0.31    0.00    0.00      -1.97   -1.24   -0.76
#  12   -0.47   -1.68    0.37    0.77    0.52    0.00    0.00      -0.50    1.60    1.08
#  13   -1.56   -1.68    0.44    0.50    0.54    0.00    0.00      -1.76    0.88    0.94
#  14    2.26   -1.95    0.96   -0.52   -0.96    0.00    0.00      -0.21   -1.06   -1.98
#  15   -7.61   -2.76    1.16   -0.65    0.44    0.00    0.00      -9.41   -1.21    0.83
#  16   -0.31   -1.79    0.97    0.93   -0.18    0.00    0.00      -0.39    2.17   -0.43
#  17   -3.10   -1.70    0.53   -1.59   -0.28    0.00    0.00      -6.15   -3.52   -0.63
#  18   10.10   -1.13    0.07    0.52    0.87    0.00    0.00      10.44    1.17    1.97
#  19    2.94   -2.76    2.95    3.09    0.20    0.00    0.00       6.43    5.99    0.39
#  20    0.69   -1.39    0.24    0.14   -0.07    0.00    0.00      -0.40    0.23   -0.12
#  21   -0.66   -2.96    2.32   -0.09   -0.10    0.00    0.00      -1.50   -0.14   -0.16
#  22   -0.82   -1.84    0.89   -0.39   -0.10    0.00    0.00      -2.26   -0.66   -0.17
#  23   -0.47   -2.45    1.23   -0.27   -0.11    0.00    0.00      -2.06   -0.41   -0.17
#  24   -0.03   -0.66    0.38    0.08   -0.13    0.00    0.00      -0.36    0.18   -0.28
#  25   -0.13   -2.22    3.98    0.05   -0.16    0.00    0.00       1.52    0.09   -0.28
#  26   -0.64   -0.66    0.23   -0.02   -0.12    0.00    0.00      -1.21   -0.04   -0.28
#  27   -0.84   -0.49    0.22   -0.43   -0.08    0.00    0.00      -1.62   -1.09   -0.21
#  28   -0.07   -0.69    0.45   -0.15   -0.11    0.00    0.00      -0.56   -0.37   -0.28
#  29   -0.02   -0.11    0.01    0.05   -0.03    0.00    0.00      -0.10    0.41   -0.28
#  30   -0.26   -0.08    0.01    0.00   -0.02    0.00    0.00      -0.36   -0.01   -0.28
#  31    3.71   -0.05    0.00    0.82    0.15    0.00    0.00       4.64    1.81    0.32
#  32    3.66   -0.06    0.00    0.37    0.28    0.00    0.00       4.26    0.76    0.58
#  33   -4.13   -0.01    0.00    0.07    0.10    0.00    0.00      -3.97    0.42    0.59
#  34   -7.04   -0.02    0.00   -0.02    0.17    0.00    0.00      -6.90   -0.06    0.60
#  35    0.12   -1.74    2.62    0.00   -0.18    0.00    0.00       0.82    0.00   -0.28
#  36    0.55   -1.01    0.71    0.28   -0.16    0.00    0.00       0.36    0.47   -0.28
#  37    0.40   -1.31    3.23   -0.05   -0.16    0.00    0.00       2.11   -0.08   -0.28
#  38    0.04   -0.96    0.76    0.20   -0.11    0.00    0.00      -0.07    0.37   -0.20
#  39    0.55   -0.76    0.85    0.38   -0.13    0.00    0.00       0.89    0.82   -0.28
#  40    0.57   -0.41    0.12    0.06   -0.11    0.00    0.00       0.23    0.15   -0.28
#  41   -0.07   -1.33    1.57   -0.02   -0.19    0.00    0.00      -0.04   -0.03   -0.28
#  42    0.44   -1.03    1.46    0.41   -0.16    0.00    0.00       1.11    0.70   -0.28
#  43    0.16   -0.83    0.49    0.15   -0.13    0.00    0.00      -0.17    0.23   -0.20

@<TRIPOS>MOLECULE
             1480       100
   43    45     0     0     0



@<TRIPOS>ATOM
      1 C1         23.3072    18.6290    64.0983 C.3        1          -0.0792
      2 C2         24.1913    17.6841    63.3259 C.2        1           0.0747
      3 C3         23.8030    16.4859    62.8308 C.2        1          -0.1187
      4 C4         24.9887    15.9237    62.1584 C.ar       1          -0.1050
      5 C5         25.2445    14.7431    61.4661 C.ar       1          -0.0622
      6 C6         26.5003    14.5170    60.9459 C.ar       1          -0.1332
      7 C7         27.5046    15.4598    61.1106 C.ar       1          -0.0925
      8 C8         27.2631    16.6321    61.7941 C.ar       1          -0.1095
      9 C9         26.0032    16.8784    62.3262 C.ar       1           0.0508
     10 O1         25.4802    17.9088    63.0217 O.3        1          -0.1865
     11 C10        22.4619    15.8662    62.9421 C.2        1           0.2129
     12 N1         22.1778    14.7196    63.5144 N.2        1          -0.2788
     13 N2         20.8050    14.4788    63.4157 N.pl3      1          -0.3803
     14 C11        20.2107    15.4980    62.7658 C.2        1           0.4166
     15 N3         18.8649    15.6093    62.4812 N.pl3      1          -0.8444
     16 C12        21.2000    16.4221    62.4386 C.2        1          -0.3634
     17 C13        21.0182    17.6928    61.7312 C.2        1           0.6141
     18 N4         22.0806    18.4842    61.4836 N.am       1          -0.8482
     19 O2         19.9079    18.0332    61.3674 O.2        1          -0.5409
     20 C14        20.1162    13.2967    63.9396 C.3        1           0.1787
     21 C15        21.1323    12.3697    64.6099 C.3        1          -0.1403
     22 C16        19.0673    13.7305    64.9656 C.3        1          -0.1651
     23 C17        19.4299    12.5553    62.7907 C.3        1          -0.1671
     24 H1         22.3125    18.1950    64.1995 H          1           0.0817
     25 H2         23.7323    18.7975    65.0877 H          1           0.0892
     26 H3         23.2373    19.5777    63.5665 H          1           0.0962
     27 H4         24.4633    14.0086    61.3377 H          1           0.1374
     28 H5         26.7034    13.6027    60.4084 H          1           0.1299
     29 H6         28.4856    15.2732    60.6995 H          1           0.1355
     30 H7         28.0529    17.3585    61.9164 H          1           0.1324
     31 H8         18.2515    14.9102    62.7568 H          1           0.4034
     32 H9         18.5324    16.3866    62.0058 H          1           0.4170
     33 H10        22.9656    18.2129    61.7734 H          1           0.4004
     34 H11        21.9603    19.3251    61.0153 H          1           0.3998
     35 H12        20.6198    11.4903    64.9998 H          1           0.0706
     36 H13        21.8797    12.0606    63.8792 H          1           0.0732
     37 H14        21.6212    12.8979    65.4286 H          1           0.0706
     38 H15        18.5549    12.8510    65.3553 H          1           0.0604
     39 H16        19.5563    14.2586    65.7842 H          1           0.0843
     40 H17        18.3435    14.3909    64.4882 H          1           0.0701
     41 H18        18.9174    11.6758    63.1807 H          1           0.0704
     42 H19        18.7061    13.2155    62.3131 H          1           0.0844
     43 H20        20.1772    12.2461    62.0600 H          1           0.0607
@<TRIPOS>BOND
     1    1    2 1
     2    1   24 1
     3    1   25 1
     4    1   26 1
     5    2   10 1
     6    2    3 2
     7    3    4 1
     8    3   11 1
     9    4    9 ar
    10    4    5 ar
    11    5    6 ar
    12    5   27 1
    13    6    7 ar
    14    6   28 1
    15    7    8 ar
    16    7   29 1
    17    8    9 ar
    18    8   30 1
    19    9   10 1
    20   11   16 1
    21   11   12 2
    22   12   13 1
    23   13   14 1
    24   13   20 1
    25   14   15 1
    26   14   16 2
    27   15   31 1
    28   15   32 1
    29   16   17 1
    30   17   18 am
    31   17   19 2
    32   18   33 1
    33   18   34 1
    34   20   21 1
    35   20   22 1
    36   20   23 1
    37   21   35 1
    38   21   36 1
    39   21   37 1
    40   22   38 1
    41   22   39 1
    42   22   40 1
    43   23   41 1
    44   23   42 1
    45   23   43 1
