##########                 Name:       compound1don06
##########          Protonation:                   98
##########               SMILES:   C[NH+]1CC[C@@H](CC1)c2[nH]c(c(c2)c3ccncc3)c4ccc(cc4)F
##########            Long Name:   [2-(4-fluorophenyl)-5-(1-methylpiperidin-1-ium-4-yl)-1H-pyrrol-3-yl]pyridine
##########          FlexRecCode: 1
##########               Number:                    4
##########   Ligand Source File: /raid1/people/jkarpiak/Desktop/tdt/G128T_ligs/G128T-0000001.db2.gz
##########           GlobalRank: 1
##########                 Rank:                    1
##########               Setnum:                   26
##########             Matchnum:                 1806
##########                Cloud:                    1
##########        Electrostatic:             0.742474
##########        Van der Waals:           -26.955351
##########  Ligand Polar Desolv:             2.854966
########## Ligand Apolar Desolv:            -4.017143
##########      Internal Energy:             0.000000
##########      Receptor Energy: 0.0
########## Receptor Desolvation:             0.000000
########## Receptor Hydrophobic:             0.000000
##########         Total Energy: -27.38
##########        Ligand Charge:             1.000000
##########            Arbitrary:    +999.9990
##########     heavy atom count:   25
##########           pose count:    4
##########        Ligand Energy:             0.000000
# num electro vdwattr vdwrepu polsolv apolsol rdesolv rhydroe totalscore fullpol fullapo
#   1   -0.05   -0.12    0.00   -0.11   -0.03    0.00    0.00      -0.31   -1.48   -0.48
#   2   -0.29   -0.25    0.01   -1.45    0.05    0.00    0.00      -1.94  -12.30    0.40
#   3    0.28    0.00    0.00    0.77    0.03    0.00    0.00       1.08   15.87    0.55
#   4    0.00   -0.25    0.01    0.07   -0.06    0.00    0.00      -0.23    0.49   -0.38
#   5    0.15   -0.60    0.11   -0.83   -0.05    0.00    0.00      -1.22   -3.84   -0.21
#   6    0.03   -0.70    0.12   -0.20   -0.05    0.00    0.00      -0.80   -0.65   -0.18
#   7    0.17   -0.78    0.12   -1.13   -0.07    0.00    0.00      -1.69   -3.78   -0.22
#   8    0.00   -0.59    0.11    0.10   -0.08    0.00    0.00      -0.46    0.49   -0.38
#   9   -0.02   -1.38    0.26    0.57   -0.24    0.00    0.00      -0.82    1.57   -0.66
#  10    0.36   -2.16    0.77   -1.36   -0.20    0.00    0.00      -2.58   -3.18   -0.46
#  11    0.19   -1.57    0.31   -0.74   -0.17    0.00    0.00      -1.98   -1.71   -0.39
#  12   -0.42   -1.13    0.13    0.14   -0.25    0.00    0.00      -1.53    0.40   -0.71
#  13    2.49   -1.08    0.15   -2.66    0.34    0.00    0.00      -0.76   -8.72    1.10
#  14    0.36   -1.01    0.11   -0.06   -0.13    0.00    0.00      -0.73   -0.16   -0.36
#  15    0.65   -2.01    1.32   -0.20   -0.15    0.00    0.00      -0.39   -0.54   -0.39
#  16    2.69   -1.75    0.38   -0.35   -0.21    0.00    0.00       0.76   -0.77   -0.47
#  17   -2.03   -1.37    0.13    0.01   -0.16    0.00    0.00      -3.41    0.02   -0.34
#  18    3.14   -1.23    0.30   -0.13   -0.25    0.00    0.00       1.82   -0.26   -0.48
#  19    1.73   -1.80    0.39   -0.47   -0.20    0.00    0.00      -0.35   -1.10   -0.47
#  20    0.51   -1.35    0.13   -0.29   -0.18    0.00    0.00      -1.19   -0.72   -0.45
#  21    0.04   -1.77    0.54    0.17   -0.15    0.00    0.00      -1.16    0.36   -0.32
#  22   -0.67   -1.67    0.40   -0.45   -0.18    0.00    0.00      -2.57   -1.01   -0.40
#  23    0.84   -1.63    0.26    0.07   -0.51    0.00    0.00      -0.97    0.13   -0.97
#  24   -2.67   -1.80    0.26   -0.79    1.24    0.00    0.00      -3.77   -1.30    2.05
#  25    0.36   -2.29    0.39    0.20   -0.61    0.00    0.00      -1.94    0.32   -0.97
#  26   -0.47   -2.36    0.62   -0.76   -0.27    0.00    0.00      -3.25   -1.29   -0.46
#  27    0.13   -0.03    0.00    0.13   -0.01    0.00    0.00       0.21    4.23   -0.28
#  28    0.13   -0.04    0.00    0.17   -0.01    0.00    0.00       0.24    4.28   -0.28
#  29    0.14   -0.02    0.00    0.10   -0.01    0.00    0.00       0.21    4.02   -0.28
#  30    0.14   -0.09    0.01    0.44   -0.03    0.00    0.00       0.47    4.73   -0.28
#  31    0.15   -0.05    0.00    0.25   -0.01    0.00    0.00       0.34    5.26   -0.28
#  32   -0.25   -0.54    0.42    0.52   -0.07    0.00    0.00       0.09    1.99   -0.28
#  33   -0.16   -0.11    0.01    0.30   -0.03    0.00    0.00       0.01    2.78   -0.24
#  34   -0.01   -0.36    0.27    0.72   -0.07    0.00    0.00       0.54    3.09   -0.28
#  35   -0.24   -0.55    0.23    0.65   -0.09    0.00    0.00      -0.01    1.99   -0.28
#  36   -0.10   -0.20    0.02    0.50   -0.06    0.00    0.00       0.17    2.44   -0.28
#  37    0.09   -0.43    0.36    1.03   -0.06    0.00    0.00       1.00    5.13   -0.28
#  38    0.08   -0.14    0.01    0.64   -0.04    0.00    0.00       0.56    4.83   -0.28
#  39   -0.30   -0.61    0.28    1.37   -0.11    0.00    0.00       0.63    3.19   -0.25
#  40   -2.31   -0.01    0.00    1.17    0.08    0.00    0.00      -1.07    8.24    0.59
#  41   -1.42   -1.17    3.03    0.27   -0.09    0.00    0.00       0.62    0.75   -0.26
#  42   -3.64   -0.67    0.34    0.23   -0.13    0.00    0.00      -3.87    0.49   -0.28
#  43   -1.86   -1.08    1.30    0.60   -0.12    0.00    0.00      -1.16    1.40   -0.28
#  44   -0.47   -0.48    0.09    1.10   -0.12    0.00    0.00       0.12    2.65   -0.28
#  45    0.42   -0.32    0.06    0.28   -0.09    0.00    0.00       0.35    0.89   -0.28
#  46    2.28   -0.37    0.08    0.24   -0.10    0.00    0.00       2.12    0.65   -0.28
#  47    0.18   -0.73    0.23    0.85   -0.18    0.00    0.00       0.36    1.36   -0.28
#  48    0.42   -0.84    0.46    1.16   -0.15    0.00    0.00       1.05    2.19   -0.28

@<TRIPOS>MOLECULE
   compound1don06        98
   48    51     0     0     0



@<TRIPOS>ATOM
      1 C1         31.4824    13.9246    62.6272 C.3        1          -0.0476
      2 N1         30.0714    14.3213    62.5270 N.4        1          -0.3855
      3 H1         29.9428    14.8991    61.7101 H          1           0.4259
      4 C2         29.6916    15.0792    63.7253 C.3        1          -0.0067
      5 C3         28.2466    15.5642    63.5900 C.3        1          -0.1376
      6 C4         27.3204    14.3546    63.4341 C.3        1          -0.0242
      7 C5         27.7718    13.5310    62.2246 C.3        1          -0.1410
      8 C6         29.2342    13.1211    62.4124 C.3        1          -0.0066
      9 C7         25.9054    14.8275    63.2219 C.2        1           0.0088
     10 C8         24.7951    14.1652    63.5986 C.2        1          -0.1557
     11 C9         23.6783    14.9470    63.2163 C.2        1          -0.1130
     12 C10        24.1772    16.0859    62.6050 C.2        1           0.0997
     13 N2         25.5433    15.9986    62.6224 N.pl3      1          -0.5393
     14 C11        23.3807    17.1947    62.0427 C.ar       1          -0.0517
     15 C12        22.9702    17.1566    60.7083 C.ar       1          -0.0566
     16 C13        22.2265    18.1950    60.1886 C.ar       1          -0.1479
     17 C14        21.8866    19.2753    60.9877 C.ar       1           0.1159
     18 F1         21.1578    20.2899    60.4732 F          1          -0.1312
     19 C15        22.2913    19.3185    62.3126 C.ar       1          -0.1504
     20 C16        23.0300    18.2830    62.8448 C.ar       1          -0.0793
     21 C17        22.2518    14.6120    63.4286 C.ar       1           0.0303
     22 C18        21.2942    15.6185    63.5968 C.ar       1          -0.1609
     23 C19        19.9767    15.2618    63.7919 C.ar       1           0.1048
     24 N3         19.6154    13.9927    63.8211 N.ar       1          -0.4846
     25 C20        20.4863    13.0131    63.6668 C.ar       1           0.1028
     26 C21        21.8232    13.2802    63.4609 C.ar       1          -0.1663
     27 H2         31.6225    13.3003    63.5095 H          1           0.1243
     28 H3         31.7662    13.3640    61.7365 H          1           0.1248
     29 H4         32.1052    14.8153    62.7097 H          1           0.1216
     30 H5         29.7785    14.4383    64.6027 H          1           0.1291
     31 H6         30.3536    15.9379    63.8366 H          1           0.1346
     32 H7         27.9658    16.1252    64.4813 H          1           0.1175
     33 H8         28.1585    16.2054    62.7129 H          1           0.0959
     34 H9         27.3695    13.7397    64.3327 H          1           0.0936
     35 H10        27.1518    12.6384    62.1402 H          1           0.1110
     36 H11        27.6739    14.1300    61.3192 H          1           0.0957
     37 H12        29.5585    12.5332    61.5537 H          1           0.1331
     38 H13        29.3312    12.5232    63.3185 H          1           0.1288
     39 H14        24.7625    13.2099    64.1015 H          1           0.1411
     40 H15        26.1548    16.6611    62.2646 H          1           0.4187
     41 H16        23.2349    16.3157    60.0845 H          1           0.1344
     42 H17        21.9084    18.1667    59.1570 H          1           0.1434
     43 H18        22.0238    20.1630    62.9305 H          1           0.1422
     44 H19        23.3406    18.3154    63.8787 H          1           0.1302
     45 H20        21.5828    16.6590    63.5745 H          1           0.1310
     46 H21        19.2304    16.0314    63.9231 H          1           0.1566
     47 H22        20.1465    11.9884    63.6978 H          1           0.1570
     48 H23        22.5295    12.4737    63.3305 H          1           0.1332
@<TRIPOS>BOND
     1    1    2 1
     2    1   27 1
     3    1   28 1
     4    1   29 1
     5    2    3 1
     6    2    8 1
     7    2    4 1
     8    4    5 1
     9    4   30 1
    10    4   31 1
    11    5    6 1
    12    5   32 1
    13    5   33 1
    14    6    7 1
    15    6    9 1
    16    6   34 1
    17    7    8 1
    18    7   35 1
    19    7   36 1
    20    8   37 1
    21    8   38 1
    22    9   13 1
    23    9   10 2
    24   10   11 1
    25   10   39 1
    26   11   12 2
    27   11   21 1
    28   12   13 1
    29   12   14 1
    30   13   40 1
    31   14   20 ar
    32   14   15 ar
    33   15   16 ar
    34   15   41 1
    35   16   17 ar
    36   16   42 1
    37   17   18 1
    38   17   19 ar
    39   19   20 ar
    40   19   43 1
    41   20   44 1
    42   21   26 ar
    43   21   22 ar
    44   22   23 ar
    45   22   45 1
    46   23   24 ar
    47   23   46 1
    48   24   25 ar
    49   25   26 ar
    50   25   47 1
    51   26   48 1
##########                 Name:       compound1don06
##########          Protonation:                   98
##########               SMILES:   C[NH+]1CC[C@@H](CC1)c2[nH]c(c(c2)c3ccncc3)c4ccc(cc4)F
##########            Long Name:   [2-(4-fluorophenyl)-5-(1-methylpiperidin-1-ium-4-yl)-1H-pyrrol-3-yl]pyridine
##########          FlexRecCode: 1
##########               Number:                    3
##########   Ligand Source File: /raid1/people/jkarpiak/Desktop/tdt/G128T_ligs/G128T-0000001.db2.gz
##########           GlobalRank: 1
##########                 Rank:                    1
##########               Setnum:                   28
##########             Matchnum:                  680
##########                Cloud:                    1
##########        Electrostatic:             2.515374
##########        Van der Waals:           -24.241459
##########  Ligand Polar Desolv:             3.540821
########## Ligand Apolar Desolv:            -3.712866
##########      Internal Energy:             0.000000
##########      Receptor Energy: 0.0
########## Receptor Desolvation:             0.000000
########## Receptor Hydrophobic:             0.000000
##########         Total Energy: -21.9
##########        Ligand Charge:             1.000000
##########            Arbitrary:    +999.9990
##########     heavy atom count:   25
##########           pose count:    4
##########        Ligand Energy:             0.000000
# num electro vdwattr vdwrepu polsolv apolsol rdesolv rhydroe totalscore fullpol fullapo
#   1   -0.05   -0.14    0.00   -0.13   -0.04    0.00    0.00      -0.35   -1.48   -0.48
#   2   -0.42   -0.25    0.01   -1.56    0.05    0.00    0.00      -2.17  -12.30    0.40
#   3    0.45    0.00    0.00    0.60    0.02    0.00    0.00       1.07   15.87    0.55
#   4   -0.01   -0.34    0.03    0.10   -0.08    0.00    0.00      -0.30    0.49   -0.38
#   5   -0.06   -0.69    0.21   -0.96   -0.05    0.00    0.00      -1.56   -3.84   -0.21
#   6    0.00   -1.12    0.97   -0.20   -0.06    0.00    0.00      -0.41   -0.65   -0.18
#   7    0.01   -0.70    0.09   -1.09   -0.06    0.00    0.00      -1.76   -3.78   -0.22
#   8   -0.01   -0.46    0.04    0.10   -0.08    0.00    0.00      -0.40    0.49   -0.38
#   9   -0.01   -2.08    1.28    0.56   -0.23    0.00    0.00      -0.49    1.57   -0.66
#  10    0.53   -1.42    0.41   -0.92   -0.13    0.00    0.00      -1.55   -3.18   -0.46
#  11    0.44   -1.35    0.26   -0.58   -0.13    0.00    0.00      -1.37   -1.71   -0.39
#  12   -0.15   -1.98    0.68    0.17   -0.30    0.00    0.00      -1.58    0.40   -0.71
#  13    0.60   -3.18    2.24   -3.78    0.48    0.00    0.00      -3.64   -8.72    1.10
#  14   -0.03   -1.84    0.48   -0.08   -0.17    0.00    0.00      -1.63   -0.16   -0.36
#  15   -0.13   -2.43    0.64   -0.31   -0.22    0.00    0.00      -2.45   -0.54   -0.39
#  16   -0.55   -2.16    0.38   -0.48   -0.29    0.00    0.00      -3.09   -0.77   -0.47
#  17    0.63   -1.64    0.24    0.01   -0.20    0.00    0.00      -0.96    0.02   -0.34
#  18   -0.93   -1.18    0.37   -0.15   -0.28    0.00    0.00      -2.18   -0.26   -0.48
#  19   -0.94   -1.68    0.37   -0.52   -0.22    0.00    0.00      -2.99   -1.10   -0.47
#  20   -0.17   -1.66    0.37   -0.32   -0.20    0.00    0.00      -1.97   -0.72   -0.45
#  21   -0.20   -0.97    0.10    0.11   -0.10    0.00    0.00      -1.06    0.36   -0.32
#  22    1.13   -1.63    0.42   -0.37   -0.15    0.00    0.00      -0.59   -1.01   -0.40
#  23   -1.16   -1.24    0.13    0.05   -0.36    0.00    0.00      -2.57    0.13   -0.97
#  24    8.22   -0.98    0.06   -0.49    0.78    0.00    0.00       7.59   -1.30    2.05
#  25   -1.71   -1.44    0.31    0.12   -0.35    0.00    0.00      -3.07    0.32   -0.97
#  26    1.59   -1.23    0.30   -0.43   -0.15    0.00    0.00       0.07   -1.29   -0.46
#  27    0.13   -0.06    0.00    0.25   -0.02    0.00    0.00       0.30    4.23   -0.28
#  28    0.11   -0.03    0.00    0.12   -0.01    0.00    0.00       0.18    4.28   -0.28
#  29    0.13   -0.02    0.00    0.10   -0.01    0.00    0.00       0.19    4.02   -0.28
#  30    0.20   -0.17    0.02    0.99   -0.06    0.00    0.00       0.98    4.73   -0.28
#  31    0.17   -0.07    0.00    0.38   -0.02    0.00    0.00       0.46    5.26   -0.28
#  32    0.06   -0.47    0.26    0.60   -0.08    0.00    0.00       0.36    1.99   -0.28
#  33   -0.01   -0.10    0.01    0.31   -0.03    0.00    0.00       0.18    2.78   -0.24
#  34    0.09   -0.95    3.80    0.85   -0.08    0.00    0.00       3.73    3.09   -0.28
#  35   -0.03   -0.44    0.14    0.58   -0.08    0.00    0.00       0.17    1.99   -0.28
#  36   -0.04   -0.18    0.02    0.41   -0.05    0.00    0.00       0.16    2.44   -0.28
#  37    0.10   -0.26    0.09    0.89   -0.05    0.00    0.00       0.76    5.13   -0.28
#  38    0.12   -0.12    0.01    0.59   -0.03    0.00    0.00       0.56    4.83   -0.28
#  39   -0.50   -0.19    0.04    0.47   -0.04    0.00    0.00      -0.22    3.19   -0.25
#  40   -0.18   -0.07    0.00    3.78    0.27    0.00    0.00       3.81    8.24    0.59
#  41    0.25   -0.89    0.56    0.39   -0.13    0.00    0.00       0.18    0.75   -0.26
#  42    0.40   -0.60    0.12    0.30   -0.17    0.00    0.00       0.05    0.49   -0.28
#  43    1.77   -0.42    0.14    0.50   -0.10    0.00    0.00       1.90    1.40   -0.28
#  44    0.03   -0.28    0.03    0.81   -0.09    0.00    0.00       0.51    2.65   -0.28
#  45   -0.72   -0.94    0.92    0.35   -0.11    0.00    0.00      -0.50    0.89   -0.28
#  46   -1.88   -0.54    0.26    0.21   -0.09    0.00    0.00      -2.04    0.65   -0.28
#  47   -3.70   -0.64    0.37    0.55   -0.11    0.00    0.00      -3.52    1.36   -0.28
#  48   -1.04   -0.40    0.19    0.67   -0.09    0.00    0.00      -0.67    2.19   -0.28

@<TRIPOS>MOLECULE
   compound1don06        98
   48    51     0     0     0



@<TRIPOS>ATOM
      1 C1         31.9161    12.7444    64.2010 C.3        1          -0.0476
      2 N1         30.6061    13.3200    63.8686 N.4        1          -0.3855
      3 H1         30.6810    13.8537    63.0157 H          1           0.4259
      4 C2         30.1697    14.2011    64.9585 C.3        1          -0.0067
      5 C3         28.8440    14.8661    64.5820 C.3        1          -0.1376
      6 C4         27.7864    13.7846    64.3431 C.3        1          -0.0242
      7 C5         28.2850    12.8281    63.2562 C.3        1          -0.1410
      8 C6         29.6310    12.2386    63.6836 C.3        1          -0.0066
      9 C7         26.4992    14.4286    63.8959 C.2        1           0.0088
     10 C8         26.4007    15.5764    63.1986 C.2        1          -0.1557
     11 C9         25.0246    15.8305    62.9827 C.2        1          -0.1130
     12 C10        24.3274    14.7916    63.5780 C.2        1           0.0997
     13 N2         25.2469    13.9391    64.1273 N.pl3      1          -0.5393
     14 C11        22.8600    14.6302    63.6086 C.ar       1          -0.0517
     15 C12        22.2961    13.3533    63.6535 C.ar       1          -0.0566
     16 C13        20.9250    13.2087    63.6820 C.ar       1          -0.1479
     17 C14        20.1070    14.3274    63.6657 C.ar       1           0.1159
     18 F1         18.7644    14.1797    63.6937 F          1          -0.1312
     19 C15        20.6611    15.5970    63.6213 C.ar       1          -0.1504
     20 C16        22.0308    15.7541    63.5987 C.ar       1          -0.0793
     21 C17        24.4427    16.9844    62.2603 C.ar       1           0.0303
     22 C18        24.1187    18.1665    62.9358 C.ar       1          -0.1609
     23 C19        23.5787    19.2166    62.2239 C.ar       1           0.1048
     24 N3         23.3672    19.1172    60.9250 N.ar       1          -0.4846
     25 C20        23.6583    18.0209    60.2502 C.ar       1           0.1028
     26 C21        24.2069    16.9252    60.8821 C.ar       1          -0.1663
     27 H2         31.8364    12.1677    65.1224 H          1           0.1243
     28 H3         32.2425    12.0920    63.3910 H          1           0.1248
     29 H4         32.6417    13.5466    64.3361 H          1           0.1216
     30 H5         30.0362    13.6148    65.8676 H          1           0.1291
     31 H6         30.9248    14.9682    65.1295 H          1           0.1346
     32 H7         28.5207    15.5185    65.3932 H          1           0.1175
     33 H8         28.9763    15.4529    63.6730 H          1           0.0959
     34 H9         27.6165    13.2306    65.2663 H          1           0.0936
     35 H10        27.5623    12.0237    63.1197 H          1           0.1110
     36 H11        28.4058    13.3725    62.3196 H          1           0.0957
     37 H12        29.9883    11.5559    62.9126 H          1           0.1331
     38 H13        29.5094    11.6954    64.6206 H          1           0.1288
     39 H14        27.2227    16.1919    62.8646 H          1           0.1411
     40 H15        25.0411    13.1207    64.6056 H          1           0.4187
     41 H16        22.9324    12.4808    63.6655 H          1           0.1344
     42 H17        20.4877    12.2218    63.7166 H          1           0.1434
     43 H18        20.0188    16.4651    63.6084 H          1           0.1422
     44 H19        22.4616    16.7440    63.5690 H          1           0.1302
     45 H20        24.2888    18.2547    63.9986 H          1           0.1310
     46 H21        23.3251    20.1328    62.7364 H          1           0.1566
     47 H22        23.4685    17.9832    59.1877 H          1           0.1570
     48 H23        24.4472    16.0331    60.3228 H          1           0.1332
@<TRIPOS>BOND
     1    1    2 1
     2    1   27 1
     3    1   28 1
     4    1   29 1
     5    2    3 1
     6    2    8 1
     7    2    4 1
     8    4    5 1
     9    4   30 1
    10    4   31 1
    11    5    6 1
    12    5   32 1
    13    5   33 1
    14    6    7 1
    15    6    9 1
    16    6   34 1
    17    7    8 1
    18    7   35 1
    19    7   36 1
    20    8   37 1
    21    8   38 1
    22    9   13 1
    23    9   10 2
    24   10   11 1
    25   10   39 1
    26   11   12 2
    27   11   21 1
    28   12   13 1
    29   12   14 1
    30   13   40 1
    31   14   20 ar
    32   14   15 ar
    33   15   16 ar
    34   15   41 1
    35   16   17 ar
    36   16   42 1
    37   17   18 1
    38   17   19 ar
    39   19   20 ar
    40   19   43 1
    41   20   44 1
    42   21   26 ar
    43   21   22 ar
    44   22   23 ar
    45   22   45 1
    46   23   24 ar
    47   23   46 1
    48   24   25 ar
    49   25   26 ar
    50   25   47 1
    51   26   48 1
##########                 Name:       compound1don06
##########          Protonation:                   98
##########               SMILES:   C[NH+]1CC[C@@H](CC1)c2[nH]c(c(c2)c3ccncc3)c4ccc(cc4)F
##########            Long Name:   [2-(4-fluorophenyl)-5-(1-methylpiperidin-1-ium-4-yl)-1H-pyrrol-3-yl]pyridine
##########          FlexRecCode: 1
##########               Number:                    1
##########   Ligand Source File: /raid1/people/jkarpiak/Desktop/tdt/G128T_ligs/G128T-0000001.db2.gz
##########           GlobalRank: 2
##########                 Rank:                    1
##########               Setnum:                    9
##########             Matchnum:                 1434
##########                Cloud:                    1
##########        Electrostatic:            -5.278832
##########        Van der Waals:           -15.971800
##########  Ligand Polar Desolv:             9.532539
########## Ligand Apolar Desolv:            -2.482484
##########      Internal Energy:             0.000000
##########      Receptor Energy: 0.0
########## Receptor Desolvation:             0.000000
########## Receptor Hydrophobic:             0.000000
##########         Total Energy: -14.2
##########        Ligand Charge:             1.000000
##########            Arbitrary:    +999.9990
##########     heavy atom count:   25
##########           pose count:    4
##########        Ligand Energy:             0.000000
# num electro vdwattr vdwrepu polsolv apolsol rdesolv rhydroe totalscore fullpol fullapo
#   1   -0.20   -1.07    0.23   -0.65   -0.21    0.00    0.00      -1.91   -1.48   -0.48
#   2    0.31   -1.12    0.16   -5.21    0.17    0.00    0.00      -5.70  -12.30    0.40
#   3    0.10   -0.03    0.00    5.76    0.20    0.00    0.00       6.02   15.87    0.55
#   4    0.04   -0.78    0.08    0.21   -0.16    0.00    0.00      -0.60    0.49   -0.38
#   5    1.52   -0.61    0.03   -1.48   -0.08    0.00    0.00      -0.62   -3.84   -0.21
#   6    0.23   -0.52    0.03   -0.19   -0.05    0.00    0.00      -0.50   -0.65   -0.18
#   7    0.79   -0.70    0.09   -1.16   -0.07    0.00    0.00      -1.06   -3.78   -0.22
#   8    0.02   -0.86    0.17    0.19   -0.15    0.00    0.00      -0.62    0.49   -0.38
#   9   -0.08   -0.65    0.04    0.37   -0.15    0.00    0.00      -0.48    1.57   -0.66
#  10    0.82   -0.84    0.28   -0.58   -0.08    0.00    0.00      -0.40   -3.18   -0.46
#  11    0.25   -0.41    0.03   -0.24   -0.05    0.00    0.00      -0.42   -1.71   -0.39
#  12   -0.55   -0.45    0.02    0.07   -0.12    0.00    0.00      -1.03    0.40   -0.71
#  13    6.57   -0.79    0.11   -2.01    0.25    0.00    0.00       4.13   -8.72    1.10
#  14    0.15   -0.51    0.03   -0.03   -0.07    0.00    0.00      -0.43   -0.16   -0.36
#  15    0.17   -0.54    0.03   -0.11   -0.08    0.00    0.00      -0.53   -0.54   -0.39
#  16    0.16   -0.77    0.06   -0.22   -0.13    0.00    0.00      -0.89   -0.77   -0.47
#  17    0.12   -1.34    0.44    0.01   -0.11    0.00    0.00      -0.87    0.02   -0.34
#  18   -0.09   -1.29    0.63   -0.11   -0.21    0.00    0.00      -1.08   -0.26   -0.48
#  19   -0.20   -1.10    0.28   -0.29   -0.12    0.00    0.00      -1.43   -1.10   -0.47
#  20   -0.06   -0.62    0.06   -0.15   -0.09    0.00    0.00      -0.87   -0.72   -0.45
#  21    0.03   -0.29    0.01    0.04   -0.04    0.00    0.00      -0.24    0.36   -0.32
#  22   -0.33   -0.33    0.01   -0.14   -0.06    0.00    0.00      -0.84   -1.01   -0.40
#  23    0.23   -0.38    0.01    0.02   -0.14    0.00    0.00      -0.25    0.13   -0.97
#  24   -0.94   -0.26    0.00   -0.13    0.21    0.00    0.00      -1.12   -1.30    2.05
#  25    0.17   -0.17    0.00    0.02   -0.06    0.00    0.00      -0.04    0.32   -0.97
#  26   -0.22   -0.19    0.00   -0.11   -0.04    0.00    0.00      -0.55   -1.29   -0.46
#  27    0.31   -0.46    0.49    1.32   -0.09    0.00    0.00       1.57    4.23   -0.28
#  28    0.61   -0.37    0.10    1.45   -0.09    0.00    0.00       1.70    4.28   -0.28
#  29    1.27   -0.43    0.15    1.37   -0.10    0.00    0.00       2.27    4.02   -0.28
#  30   -1.06   -0.36    0.19    1.35   -0.08    0.00    0.00       0.04    4.73   -0.28
#  31   -0.63   -0.34    0.11    1.53   -0.08    0.00    0.00       0.59    5.26   -0.28
#  32   -2.01   -0.17    0.01    0.39   -0.05    0.00    0.00      -1.84    1.99   -0.28
#  33   -0.84   -0.26    0.02    0.78   -0.07    0.00    0.00      -0.37    2.78   -0.24
#  34   -1.06   -0.24    0.04    0.74   -0.07    0.00    0.00      -0.59    3.09   -0.28
#  35   -0.53   -0.15    0.01    0.29   -0.04    0.00    0.00      -0.42    1.99   -0.28
#  36   -0.60   -0.57    0.50    0.62   -0.07    0.00    0.00      -0.12    2.44   -0.28
#  37   -0.12   -0.29    0.04    1.49   -0.08    0.00    0.00       1.04    5.13   -0.28
#  38   -0.54   -0.60    1.13    1.36   -0.08    0.00    0.00       1.27    4.83   -0.28
#  39   -0.81   -0.36    0.36    0.51   -0.04    0.00    0.00      -0.34    3.19   -0.25
#  40   -8.70   -0.03    0.00    1.59    0.11    0.00    0.00      -7.03    8.24    0.59
#  41   -0.67   -0.09    0.00    0.06   -0.02    0.00    0.00      -0.71    0.75   -0.26
#  42   -0.22   -0.15    0.01    0.08   -0.04    0.00    0.00      -0.33    0.49   -0.28
#  43    0.19   -0.21    0.04    0.26   -0.05    0.00    0.00       0.22    1.40   -0.28
#  44    0.08   -0.08    0.00    0.24   -0.03    0.00    0.00       0.22    2.65   -0.28
#  45    0.30   -0.07    0.00    0.06   -0.02    0.00    0.00       0.27    0.89   -0.28
#  46    0.41   -0.12    0.01    0.08   -0.03    0.00    0.00       0.34    0.65   -0.28
#  47    0.23   -0.02    0.00    0.04   -0.01    0.00    0.00       0.24    1.36   -0.28
#  48    0.08   -0.03    0.00    0.08   -0.01    0.00    0.00       0.12    2.19   -0.28

@<TRIPOS>MOLECULE
   compound1don06        98
   48    51     0     0     0



@<TRIPOS>ATOM
      1 C1         21.1778    15.8841    63.4299 C.3        1          -0.0476
      2 N1         22.3833    16.6712    63.1378 N.4        1          -0.3855
      3 H1         22.6682    17.1687    63.9680 H          1           0.4259
      4 C2         22.0904    17.6334    62.0688 C.3        1          -0.0067
      5 C3         23.3186    18.5106    61.8163 C.3        1          -0.1376
      6 C4         24.4953    17.6238    61.3989 C.3        1          -0.0242
      7 C5         24.7440    16.5765    62.4880 C.3        1          -0.1410
      8 C6         23.4625    15.7712    62.7138 C.3        1          -0.0066
      9 C7         25.7285    18.4722    61.2244 C.2        1           0.0088
     10 C8         26.8781    18.3306    61.9113 C.2        1          -0.1557
     11 C9         27.7794    19.3194    61.4480 C.2        1          -0.1130
     12 C10        27.1146    20.0399    60.4688 C.2        1           0.0997
     13 N2         25.8618    19.5035    60.3410 N.pl3      1          -0.5393
     14 C11        27.6606    21.1756    59.6991 C.ar       1          -0.0517
     15 C12        27.0469    22.4284    59.7677 C.ar       1          -0.0566
     16 C13        27.5612    23.4854    59.0466 C.ar       1          -0.1479
     17 C14        28.6844    23.3062    58.2546 C.ar       1           0.1159
     18 F1         29.1837    24.3453    57.5503 F          1          -0.1312
     19 C15        29.2975    22.0652    58.1827 C.ar       1          -0.1504
     20 C16        28.7958    21.0025    58.9042 C.ar       1          -0.0793
     21 C17        29.1654    19.5411    61.9192 C.ar       1           0.0303
     22 C18        29.5443    20.7613    62.4900 C.ar       1          -0.1609
     23 C19        30.8456    20.9248    62.9155 C.ar       1           0.1048
     24 N3         31.7271    19.9506    62.7903 N.ar       1          -0.4846
     25 C20        31.4113    18.7849    62.2578 C.ar       1           0.1028
     26 C21        30.1311    18.5340    61.8114 C.ar       1          -0.1663
     27 H2         20.8691    15.3462    62.5337 H          1           0.1243
     28 H3         21.3934    15.1709    64.2255 H          1           0.1248
     29 H4         20.3763    16.5513    63.7473 H          1           0.1216
     30 H5         21.8351    17.0952    61.1560 H          1           0.1291
     31 H6         21.2507    18.2616    62.3660 H          1           0.1346
     32 H7         23.0998    19.2232    61.0211 H          1           0.1175
     33 H8         23.5747    19.0495    62.7285 H          1           0.0959
     34 H9         24.2595    17.1239    60.4594 H          1           0.0936
     35 H10        25.5441    15.9066    62.1729 H          1           0.1110
     36 H11        25.0297    17.0753    63.4142 H          1           0.0957
     37 H12        23.6365    15.0236    63.4877 H          1           0.1331
     38 H13        23.1772    15.2737    61.7870 H          1           0.1288
     39 H14        27.0767    17.5957    62.6772 H          1           0.1411
     40 H15        25.1786    19.8086    59.7237 H          1           0.4187
     41 H16        26.1713    22.5691    60.3839 H          1           0.1344
     42 H17        27.0875    24.4545    59.0987 H          1           0.1434
     43 H18        30.1722    21.9313    57.5636 H          1           0.1422
     44 H19        29.2772    20.0372    58.8513 H          1           0.1302
     45 H20        28.8284    21.5630    62.5955 H          1           0.1310
     46 H21        31.1476    21.8631    63.3570 H          1           0.1566
     47 H22        32.1647    18.0156    62.1748 H          1           0.1570
     48 H23        29.8785    17.5761    61.3813 H          1           0.1332
@<TRIPOS>BOND
     1    1    2 1
     2    1   27 1
     3    1   28 1
     4    1   29 1
     5    2    3 1
     6    2    8 1
     7    2    4 1
     8    4    5 1
     9    4   30 1
    10    4   31 1
    11    5    6 1
    12    5   32 1
    13    5   33 1
    14    6    7 1
    15    6    9 1
    16    6   34 1
    17    7    8 1
    18    7   35 1
    19    7   36 1
    20    8   37 1
    21    8   38 1
    22    9   13 1
    23    9   10 2
    24   10   11 1
    25   10   39 1
    26   11   12 2
    27   11   21 1
    28   12   13 1
    29   12   14 1
    30   13   40 1
    31   14   20 ar
    32   14   15 ar
    33   15   16 ar
    34   15   41 1
    35   16   17 ar
    36   16   42 1
    37   17   18 1
    38   17   19 ar
    39   19   20 ar
    40   19   43 1
    41   20   44 1
    42   21   26 ar
    43   21   22 ar
    44   22   23 ar
    45   22   45 1
    46   23   24 ar
    47   23   46 1
    48   24   25 ar
    49   25   26 ar
    50   25   47 1
    51   26   48 1
##########                 Name:       compound1don06
##########          Protonation:                   98
##########               SMILES:   C[NH+]1CC[C@@H](CC1)c2[nH]c(c(c2)c3ccncc3)c4ccc(cc4)F
##########            Long Name:   [2-(4-fluorophenyl)-5-(1-methylpiperidin-1-ium-4-yl)-1H-pyrrol-3-yl]pyridine
##########          FlexRecCode: 1
##########               Number:                    2
##########   Ligand Source File: /raid1/people/jkarpiak/Desktop/tdt/G128T_ligs/G128T-0000001.db2.gz
##########           GlobalRank: 2
##########                 Rank:                    1
##########               Setnum:                    9
##########             Matchnum:                 5753
##########                Cloud:                    1
##########        Electrostatic:           -13.844619
##########        Van der Waals:            38.442963
##########  Ligand Polar Desolv:             6.243601
########## Ligand Apolar Desolv:            -5.062546
##########      Internal Energy:             0.000000
##########      Receptor Energy: 0.0
########## Receptor Desolvation:             0.000000
########## Receptor Hydrophobic:             0.000000
##########         Total Energy: 25.78
##########        Ligand Charge:             1.000000
##########            Arbitrary:    +999.9990
##########     heavy atom count:   25
##########           pose count:    4
##########        Ligand Energy:             0.000000
# num electro vdwattr vdwrepu polsolv apolsol rdesolv rhydroe totalscore fullpol fullapo
#   1    0.34   -0.33    0.01   -0.29   -0.09    0.00    0.00      -0.36   -1.48   -0.48
#   2    4.14   -0.57    0.03   -3.00    0.10    0.00    0.00       0.70  -12.30    0.40
#   3   -5.56   -0.01    0.00    2.08    0.07    0.00    0.00      -3.42   15.87    0.55
#   4    0.10   -0.70    0.08    0.16   -0.12    0.00    0.00      -0.49    0.49   -0.38
#   5    1.85   -0.73    0.05   -1.56   -0.09    0.00    0.00      -0.47   -3.84   -0.21
#   6    0.15   -1.02    0.12   -0.27   -0.07    0.00    0.00      -1.08   -0.65   -0.18
#   7    1.01   -1.17    0.54   -1.25   -0.07    0.00    0.00      -0.93   -3.78   -0.22
#   8    0.05   -1.26    1.11    0.12   -0.10    0.00    0.00      -0.07    0.49   -0.38
#   9   -0.01   -1.62    0.30    0.70   -0.29    0.00    0.00      -0.93    1.57   -0.66
#  10   -0.09   -1.52    0.27   -1.35   -0.19    0.00    0.00      -2.87   -3.18   -0.46
#  11   -0.52   -1.68    0.40   -0.79   -0.18    0.00    0.00      -2.78   -1.71   -0.39
#  12    1.12   -2.54    1.48    0.19   -0.34    0.00    0.00      -0.08    0.40   -0.71
#  13   -3.36   -3.54    3.84   -4.09    0.52    0.00    0.00      -6.64   -8.72    1.10
#  14   -1.00   -3.04    2.71   -0.09   -0.20    0.00    0.00      -1.61   -0.16   -0.36
#  15   -1.13   -5.31   13.51   -0.31   -0.22    0.00    0.00       6.55   -0.54   -0.39
#  16   -2.42   -4.66    3.54   -0.47   -0.29    0.00    0.00      -4.29   -0.77   -0.47
#  17    1.97   -2.85    1.00    0.01   -0.20    0.00    0.00      -0.07    0.02   -0.34
#  18   -1.71   -1.32    0.27   -0.16   -0.29    0.00    0.00      -3.21   -0.26   -0.48
#  19   -2.21   -2.34    0.51   -0.72   -0.31    0.00    0.00      -5.07   -1.10   -0.47
#  20   -1.14   -2.38    0.65   -0.43   -0.27    0.00    0.00      -3.57   -0.72   -0.45
#  21    0.13   -1.75    0.30    0.21   -0.19    0.00    0.00      -1.30    0.36   -0.32
#  22   -0.59   -2.38    0.78   -0.63   -0.25    0.00    0.00      -3.06   -1.01   -0.40
#  23    0.10   -4.38    2.37    0.09   -0.66    0.00    0.00      -2.48    0.13   -0.97
#  24    0.22   -9.14   18.54   -0.90    1.42    0.00    0.00      10.13   -1.30    2.05
#  25    0.56   -7.70   16.59    0.21   -0.64    0.00    0.00       9.02    0.32   -0.97
#  26   -0.81   -3.77    3.79   -0.78   -0.28    0.00    0.00      -1.85   -1.29   -0.46
#  27   -0.44   -0.09    0.00    0.40   -0.03    0.00    0.00      -0.16    4.23   -0.28
#  28   -0.52   -0.07    0.00    0.28   -0.02    0.00    0.00      -0.32    4.28   -0.28
#  29   -1.27   -0.14    0.02    0.51   -0.04    0.00    0.00      -0.92    4.02   -0.28
#  30   -1.52   -0.39    0.15    1.15   -0.07    0.00    0.00      -0.67    4.73   -0.28
#  31   -2.80   -0.23    0.03    1.24   -0.07    0.00    0.00      -1.82    5.26   -0.28
#  32   -1.79   -0.33    0.06    0.61   -0.09    0.00    0.00      -1.54    1.99   -0.28
#  33   -1.45   -0.18    0.01    0.60   -0.05    0.00    0.00      -1.07    2.78   -0.24
#  34   -0.44   -0.65    0.21    1.37   -0.12    0.00    0.00       0.36    3.09   -0.28
#  35   -0.69   -0.98    1.63    0.63   -0.09    0.00    0.00       0.50    1.99   -0.28
#  36   -0.65   -0.15    0.01    0.35   -0.04    0.00    0.00      -0.49    2.44   -0.28
#  37   -0.85   -0.30    0.23    0.75   -0.04    0.00    0.00      -0.21    5.13   -0.28
#  38   -0.84   -0.94    1.76    1.39   -0.08    0.00    0.00       1.29    4.83   -0.28
#  39   -0.16   -0.25    0.03    0.84   -0.07    0.00    0.00       0.39    3.19   -0.25
#  40    1.58   -0.14    0.04    3.63    0.26    0.00    0.00       5.37    8.24    0.59
#  41    1.39   -1.23    2.89    0.38   -0.13    0.00    0.00       3.30    0.75   -0.26
#  42   -0.01   -2.74   17.45    0.32   -0.18    0.00    0.00      14.84    0.49   -0.28
#  43    1.41   -0.45    0.07    0.74   -0.15    0.00    0.00       1.61    1.40   -0.28
#  44    1.37   -0.68    0.57    1.29   -0.14    0.00    0.00       2.41    2.65   -0.28
#  45    0.55   -0.65    0.47    0.45   -0.14    0.00    0.00       0.68    0.89   -0.28
#  46    0.11   -1.45    1.93    0.45   -0.19    0.00    0.00       0.84    0.65   -0.28
#  47    1.25   -3.38   14.47    0.96   -0.20    0.00    0.00      13.11    1.36   -0.28
#  48    0.71   -1.74    8.49    1.19   -0.15    0.00    0.00       8.50    2.19   -0.28

@<TRIPOS>MOLECULE
   compound1don06        98
   48    51     0     0     0



@<TRIPOS>ATOM
      1 C1         26.4457    20.3410    60.8919 C.3        1          -0.0476
      2 N1         25.3738    19.4089    61.2667 N.4        1          -0.3855
      3 H1         25.2648    18.7147    60.5427 H          1           0.4259
      4 C2         24.1168    20.1496    61.4258 C.3        1          -0.0067
      5 C3         22.9806    19.1728    61.7368 C.3        1          -0.1376
      6 C4         23.3003    18.4225    63.0329 C.3        1          -0.0242
      7 C5         24.6496    17.7142    62.8816 C.3        1          -0.1410
      8 C6         25.7230    18.7463    62.5292 C.3        1          -0.0066
      9 C7         22.2237    17.4034    63.3039 C.2        1           0.0088
     10 C8         22.4138    16.0743    63.4068 C.2        1          -0.1557
     11 C9         21.1549    15.4794    63.6640 C.2        1          -0.1130
     12 C10        20.2274    16.5077    63.7070 C.2        1           0.0997
     13 N2         20.9006    17.6798    63.4902 N.pl3      1          -0.5393
     14 C11        18.7777    16.3658    63.9489 C.ar       1          -0.0517
     15 C12        17.8613    16.7886    62.9836 C.ar       1          -0.0566
     16 C13        16.5086    16.6536    63.2151 C.ar       1          -0.1479
     17 C14        16.0580    16.0990    64.4029 C.ar       1           0.1159
     18 F1         14.7316    15.9691    64.6244 F          1          -0.1312
     19 C15        16.9629    15.6784    65.3646 C.ar       1          -0.1504
     20 C16        18.3180    15.8028    65.1416 C.ar       1          -0.0793
     21 C17        20.8822    14.0361    63.8506 C.ar       1           0.0303
     22 C18        20.0108    13.3526    62.9951 C.ar       1          -0.1609
     23 C19        19.7854    12.0086    63.2052 C.ar       1           0.1048
     24 N3         20.3781    11.3687    64.1956 N.ar       1          -0.4846
     25 C20        21.2064    11.9755    65.0250 C.ar       1           0.1028
     26 C21        21.4931    13.3167    64.8839 C.ar       1          -0.1663
     27 H2         26.5644    21.0914    61.6734 H          1           0.1243
     28 H3         27.3793    19.7915    60.7710 H          1           0.1248
     29 H4         26.1886    20.8317    59.9532 H          1           0.1216
     30 H5         24.2166    20.8625    62.2442 H          1           0.1291
     31 H6         23.8922    20.6856    60.5037 H          1           0.1346
     32 H7         22.0483    19.7249    61.8562 H          1           0.1175
     33 H8         22.8796    18.4595    60.9188 H          1           0.0959
     34 H9         23.3507    19.1299    63.8606 H          1           0.0936
     35 H10        24.9103    17.2237    63.8195 H          1           0.1110
     36 H11        24.5832    16.9707    62.0873 H          1           0.0957
     37 H12        26.6853    18.2456    62.4221 H          1           0.1331
     38 H13        25.7878    19.4899    63.3234 H          1           0.1288
     39 H14        23.3562    15.5557    63.3106 H          1           0.1411
     40 H15        20.5012    18.5635    63.4702 H          1           0.4187
     41 H16        18.2112    17.2208    62.0579 H          1           0.1344
     42 H17        15.7990    16.9803    62.4695 H          1           0.1434
     43 H18        16.6060    15.2480    66.2887 H          1           0.1422
     44 H19        19.0222    15.4696    65.8894 H          1           0.1302
     45 H20        19.5220    13.8699    62.1828 H          1           0.1310
     46 H21        19.1142    11.4725    62.5505 H          1           0.1566
     47 H22        21.6694    11.4128    65.8220 H          1           0.1570
     48 H23        22.1757    13.8057    65.5631 H          1           0.1332
@<TRIPOS>BOND
     1    1    2 1
     2    1   27 1
     3    1   28 1
     4    1   29 1
     5    2    3 1
     6    2    8 1
     7    2    4 1
     8    4    5 1
     9    4   30 1
    10    4   31 1
    11    5    6 1
    12    5   32 1
    13    5   33 1
    14    6    7 1
    15    6    9 1
    16    6   34 1
    17    7    8 1
    18    7   35 1
    19    7   36 1
    20    8   37 1
    21    8   38 1
    22    9   13 1
    23    9   10 2
    24   10   11 1
    25   10   39 1
    26   11   12 2
    27   11   21 1
    28   12   13 1
    29   12   14 1
    30   13   40 1
    31   14   20 ar
    32   14   15 ar
    33   15   16 ar
    34   15   41 1
    35   16   17 ar
    36   16   42 1
    37   17   18 1
    38   17   19 ar
    39   19   20 ar
    40   19   43 1
    41   20   44 1
    42   21   26 ar
    43   21   22 ar
    44   22   23 ar
    45   22   45 1
    46   23   24 ar
    47   23   46 1
    48   24   25 ar
    49   25   26 ar
    50   25   47 1
    51   26   48 1
##########                 Name:       compound2don06
##########          Protonation:                   94
##########               SMILES:   C[NH+](C)Cc1ccn2c(c1)nc(c2c3ccnc(n3)N)c4ccc(cc4)F
##########            Long Name:   -4-yl)-2-(4-fluorophenyl)imidazo[1,2-a]pyridin-7-yl]methyl-dimethyl-ammonium
##########          FlexRecCode: 1
##########               Number:                    6
##########   Ligand Source File: /raid1/people/jkarpiak/Desktop/tdt/G128T_ligs/G128T-0000001.db2.gz
##########           GlobalRank: 2
##########                 Rank:                    1
##########               Setnum:                   15
##########             Matchnum:                 2621
##########                Cloud:                    1
##########        Electrostatic:             3.901191
##########        Van der Waals:           -22.846735
##########  Ligand Polar Desolv:             2.593426
########## Ligand Apolar Desolv:            -3.526934
##########      Internal Energy:             0.000000
##########      Receptor Energy: 0.0
########## Receptor Desolvation:             0.000000
########## Receptor Hydrophobic:             0.000000
##########         Total Energy: -19.88
##########        Ligand Charge:             1.000000
##########            Arbitrary:    +999.9990
##########     heavy atom count:   27
##########           pose count:    3
##########        Ligand Energy:             0.000000
# num electro vdwattr vdwrepu polsolv apolsol rdesolv rhydroe totalscore fullpol fullapo
#   1   -0.03   -0.18    0.00   -0.19   -0.06    0.00    0.00      -0.45   -1.59   -0.48
#   2   -0.35   -0.15    0.00   -0.95    0.03    0.00    0.00      -1.41  -12.84    0.46
#   3    0.34    0.00    0.00    0.66    0.02    0.00    0.00       1.02   17.14    0.56
#   4   -0.07   -0.08    0.00   -0.11   -0.02    0.00    0.00      -0.28   -1.98   -0.46
#   5    0.04   -0.16    0.00    0.20   -0.04    0.00    0.00       0.06    2.01   -0.36
#   6    0.16   -0.58    0.12   -0.18   -0.05    0.00    0.00      -0.52   -1.19   -0.32
#   7    0.08   -0.54    0.08   -0.27   -0.06    0.00    0.00      -0.71   -1.71   -0.38
#   8   -1.56   -0.77    0.14    0.63   -0.46    0.00    0.00      -2.02    2.90   -2.13
#   9    4.96   -0.69    0.03   -1.04    0.56    0.00    0.00       3.82   -3.95    2.12
#  10   -1.95   -0.83    0.05    0.13   -0.23    0.00    0.00      -2.84    0.39   -0.73
#  11    0.07   -0.99    0.09   -0.22   -0.24    0.00    0.00      -1.29   -0.69   -0.74
#  12    2.11   -1.19    0.35   -1.11    0.23    0.00    0.00       0.39   -4.28    0.87
#  13   -0.33   -1.61    0.78   -0.06   -0.24    0.00    0.00      -1.46   -0.22   -0.86
#  14    0.34   -1.04    0.36   -0.41   -0.09    0.00    0.00      -0.84   -1.98   -0.45
#  15   -0.67   -1.31    0.21    0.63   -0.25    0.00    0.00      -1.38    1.61   -0.63
#  16   -0.27   -1.49    0.26   -1.15   -0.18    0.00    0.00      -2.84   -2.68   -0.43
#  17    1.10   -1.83    0.57    0.71   -0.45    0.00    0.00       0.09    1.54   -0.98
#  18   -2.22   -1.87    0.37   -1.55    1.16    0.00    0.00      -4.10   -2.77    2.08
#  19    0.74   -2.20    0.70    0.93   -2.57    0.00    0.00      -2.40    1.78   -4.94
#  20   -1.65   -4.90    4.47   -2.29    0.54    0.00    0.00      -3.83   -4.02    0.95
#  21    0.92   -1.61    0.29   -0.97    0.59    0.00    0.00      -0.79   -2.19    1.32
#  22    0.59   -1.06    0.08   -0.03   -0.16    0.00    0.00      -0.58   -0.07   -0.39
#  23    0.34   -2.33    1.30   -0.05   -0.16    0.00    0.00      -0.90   -0.10   -0.35
#  24    2.68   -2.79    1.08   -0.20   -0.26    0.00    0.00       0.51   -0.36   -0.47
#  25   -2.25   -2.31    0.53   -0.02   -0.20    0.00    0.00      -4.25   -0.03   -0.34
#  26    2.28   -1.56    0.26   -0.05   -0.32    0.00    0.00       0.61   -0.07   -0.48
#  27    3.21   -2.35    0.73   -0.26   -0.24    0.00    0.00       1.08   -0.50   -0.47
#  28    0.83   -1.52    0.26   -0.11   -0.20    0.00    0.00      -0.74   -0.26   -0.45
#  29    0.09   -0.04    0.00    0.17   -0.01    0.00    0.00       0.21    4.19   -0.28
#  30    0.13   -0.07    0.00    0.42   -0.02    0.00    0.00       0.46    5.34   -0.28
#  31   -0.03   -0.07    0.00    0.28   -0.02    0.00    0.00       0.17    4.33   -0.28
#  32    0.16   -0.02    0.00    0.10   -0.01    0.00    0.00       0.24    4.48   -0.28
#  33    0.16   -0.03    0.00    0.09   -0.01    0.00    0.00       0.21    2.41   -0.22
#  34    0.18   -0.02    0.00    0.12   -0.01    0.00    0.00       0.27    4.21   -0.28
#  35    0.18   -0.04    0.00    0.29   -0.01    0.00    0.00       0.41    6.14   -0.28
#  36    0.21   -0.03    0.00    0.33   -0.01    0.00    0.00       0.48    7.91   -0.28
#  37   -0.36   -0.06    0.00    0.30   -0.02    0.00    0.00      -0.14    4.91   -0.28
#  38   -0.38   -0.36    0.10    1.01   -0.05    0.00    0.00       0.31    3.72   -0.19
#  39   -0.11   -0.14    0.01    1.23   -0.04    0.00    0.00       0.95    8.42   -0.28
#  40   -0.05   -0.27    0.04    0.92   -0.06    0.00    0.00       0.57    3.03   -0.19
#  41    1.74   -0.37    0.10    0.99   -0.10    0.00    0.00       2.35    2.89   -0.28
#  42    3.03   -0.11    0.01    1.57    0.35    0.00    0.00       4.85    2.65    0.59
#  43   -1.54   -0.11    0.01    1.14    0.30    0.00    0.00      -0.19    2.26    0.59
#  44   -1.40   -1.48    4.91    0.08   -0.09    0.00    0.00       2.03    0.19   -0.21
#  45   -2.10   -1.16    1.54    0.26   -0.16    0.00    0.00      -1.62    0.46   -0.28
#  46   -3.06   -0.81    0.64    0.40   -0.13    0.00    0.00      -2.96    0.85   -0.28
#  47   -2.40   -0.45    0.26    0.24   -0.08    0.00    0.00      -2.43    0.84   -0.28

@<TRIPOS>MOLECULE
   compound2don06        94
   47    50     0     0     0



@<TRIPOS>ATOM
      1 C1         29.8617    17.0314    59.9498 C.3        1          -0.0475
      2 N1         30.4409    16.5494    61.2109 N.4        1          -0.3868
      3 H1         30.2161    15.5733    61.3328 H          1           0.4271
      4 C2         31.9000    16.7149    61.1743 C.3        1          -0.0549
      5 C3         29.8881    17.3229    62.3307 C.3        1           0.0482
      6 C4         28.3912    17.1529    62.3680 C.2        1          -0.1401
      7 C5         27.5884    18.0060    61.6744 C.2        1          -0.0248
      8 C6         26.1909    17.8319    61.7204 C.2        1           0.2250
      9 N2         25.1978    18.5049    61.1512 N.2        1          -0.4598
     10 C7         24.0292    17.9558    61.4945 C.2        1           0.1850
     11 C8         24.2926    16.8743    62.3275 C.2        1          -0.0118
     12 N3         25.6626    16.8085    62.4610 N.pl3      1          -0.3418
     13 C9         26.4761    15.9606    63.1507 C.2        1           0.0800
     14 C10        27.8182    16.1110    63.1131 C.2        1          -0.1443
     15 C11        23.3040    15.9774    62.9448 C.ar       1           0.2907
     16 C12        22.0197    16.4439    63.2660 C.ar       1          -0.2998
     17 C13        21.1272    15.5644    63.8439 C.ar       1           0.2122
     18 N4         21.5046    14.3151    64.0772 N.ar       1          -0.5660
     19 C14        22.7233    13.8987    63.7647 C.ar       1           0.5827
     20 N5         23.0744    12.5855    64.0257 N.pl3      1          -0.8118
     21 N6         23.6115    14.7038    63.2041 N.ar       1          -0.5493
     22 C15        22.6887    18.4184    61.0636 C.ar       1          -0.0418
     23 C16        21.8491    17.5625    60.3515 C.ar       1          -0.0242
     24 C17        20.6021    17.9973    59.9529 C.ar       1          -0.1618
     25 C18        20.1834    19.2821    60.2591 C.ar       1           0.1223
     26 F1         18.9612    19.7036    59.8668 F          1          -0.1333
     27 C19        21.0140    20.1360    60.9670 C.ar       1          -0.1609
     28 C20        22.2608    19.7087    61.3739 C.ar       1          -0.0475
     29 H2         30.1045    18.0857    59.8180 H          1           0.1261
     30 H3         30.2719    16.4574    59.1188 H          1           0.1252
     31 H4         28.7790    16.9085    59.9768 H          1           0.1243
     32 H5         32.3299    16.3572    62.1100 H          1           0.1257
     33 H6         32.3101    16.1409    60.3433 H          1           0.1206
     34 H7         32.1430    17.7693    61.0425 H          1           0.1268
     35 H8         30.3178    16.9651    63.2665 H          1           0.1420
     36 H9         30.1310    18.3772    62.1991 H          1           0.1452
     37 H10        28.0186    18.8092    61.0946 H          1           0.1649
     38 H11        26.0438    15.1582    63.7303 H          1           0.1782
     39 H12        28.4518    15.4293    63.6611 H          1           0.1619
     40 H13        21.7369    17.4669    63.0659 H          1           0.1386
     41 H14        20.1309    15.8906    64.1039 H          1           0.1754
     42 H15        22.4318    11.9833    64.4323 H          1           0.4205
     43 H16        23.9630    12.2674    63.8020 H          1           0.4181
     44 H17        22.1748    16.5609    60.1120 H          1           0.1239
     45 H18        19.9513    17.3353    59.4010 H          1           0.1385
     46 H19        20.6833    21.1365    61.2037 H          1           0.1421
     47 H20        22.9060    20.3735    61.9291 H          1           0.1372
@<TRIPOS>BOND
     1    1    2 1
     2    1   29 1
     3    1   30 1
     4    1   31 1
     5    2    3 1
     6    2    4 1
     7    2    5 1
     8    4   32 1
     9    4   33 1
    10    4   34 1
    11    5    6 1
    12    5   35 1
    13    5   36 1
    14    6   14 1
    15    6    7 2
    16    7    8 1
    17    7   37 1
    18    8   12 1
    19    8    9 2
    20    9   10 1
    21   10   11 2
    22   10   22 1
    23   11   12 1
    24   11   15 1
    25   12   13 1
    26   13   14 2
    27   13   38 1
    28   14   39 1
    29   15   21 ar
    30   15   16 ar
    31   16   17 ar
    32   16   40 1
    33   17   18 ar
    34   17   41 1
    35   18   19 ar
    36   19   20 1
    37   19   21 ar
    38   20   42 1
    39   20   43 1
    40   22   28 ar
    41   22   23 ar
    42   23   24 ar
    43   23   44 1
    44   24   25 ar
    45   24   45 1
    46   25   26 1
    47   25   27 ar
    48   27   28 ar
    49   27   46 1
    50   28   47 1
##########                 Name:       compound2don06
##########          Protonation:                   94
##########               SMILES:   C[NH+](C)Cc1ccn2c(c1)nc(c2c3ccnc(n3)N)c4ccc(cc4)F
##########            Long Name:   -4-yl)-2-(4-fluorophenyl)imidazo[1,2-a]pyridin-7-yl]methyl-dimethyl-ammonium
##########          FlexRecCode: 1
##########               Number:                    7
##########   Ligand Source File: /raid1/people/jkarpiak/Desktop/tdt/G128T_ligs/G128T-0000001.db2.gz
##########           GlobalRank: 2
##########                 Rank:                    1
##########               Setnum:                   18
##########             Matchnum:                 2000
##########                Cloud:                    1
##########        Electrostatic:            -0.514643
##########        Van der Waals:            -6.900600
##########  Ligand Polar Desolv:             8.209126
########## Ligand Apolar Desolv:            -3.602479
##########      Internal Energy:             0.000000
##########      Receptor Energy: 0.0
########## Receptor Desolvation:             0.000000
########## Receptor Hydrophobic:             0.000000
##########         Total Energy: -2.81
##########        Ligand Charge:             1.000000
##########            Arbitrary:    +999.9990
##########     heavy atom count:   27
##########           pose count:    3
##########        Ligand Energy:             0.000000
# num electro vdwattr vdwrepu polsolv apolsol rdesolv rhydroe totalscore fullpol fullapo
#   1    0.11   -0.52    0.03   -0.49   -0.15    0.00    0.00      -1.01   -1.59   -0.48
#   2   -0.04   -0.74    0.07   -4.19    0.15    0.00    0.00      -4.75  -12.84    0.46
#   3    0.48   -0.02    0.00    3.49    0.11    0.00    0.00       4.06   17.14    0.56
#   4   -0.03   -1.07    0.16   -0.92   -0.21    0.00    0.00      -2.07   -1.98   -0.46
#   5    0.04   -0.44    0.04    0.44   -0.08    0.00    0.00       0.00    2.01   -0.36
#   6    0.16   -0.40    0.01   -0.19   -0.05    0.00    0.00      -0.46   -1.19   -0.32
#   7    0.09   -0.44    0.01   -0.29   -0.06    0.00    0.00      -0.70   -1.71   -0.38
#   8   -1.72   -0.56    0.03    0.62   -0.46    0.00    0.00      -2.09    2.90   -2.13
#   9    4.73   -0.92    0.08   -1.09    0.59    0.00    0.00       3.38   -3.95    2.12
#  10   -2.04   -0.81    0.05    0.11   -0.21    0.00    0.00      -2.89    0.39   -0.73
#  11    0.11   -0.65    0.04   -0.17   -0.18    0.00    0.00      -0.85   -0.69   -0.74
#  12    2.61   -0.52    0.03   -0.82    0.17    0.00    0.00       1.46   -4.28    0.87
#  13   -0.28   -0.46    0.02   -0.04   -0.15    0.00    0.00      -0.91   -0.22   -0.86
#  14    0.14   -0.40    0.01   -0.32   -0.07    0.00    0.00      -0.64   -1.98   -0.45
#  15   -2.00   -0.83    0.06    0.47   -0.18    0.00    0.00      -2.48    1.61   -0.63
#  16    2.30   -1.91    0.95   -1.03   -0.16    0.00    0.00       0.14   -2.68   -0.43
#  17   -0.75   -3.73    3.18    0.73   -0.46    0.00    0.00      -1.04    1.54   -0.98
#  18   -0.52   -5.76   17.73   -1.25    0.94    0.00    0.00      11.14   -2.77    2.08
#  19   -0.16   -2.01    1.93    0.57   -1.59    0.00    0.00      -1.26    1.78   -4.94
#  20   -0.66   -1.67    0.89   -1.18    0.28    0.00    0.00      -2.33   -4.02    0.95
#  21    1.51   -0.72    0.06   -0.55    0.33    0.00    0.00       0.63   -2.19    1.32
#  22    0.37   -0.97    0.06   -0.03   -0.14    0.00    0.00      -0.70   -0.07   -0.39
#  23    0.11   -1.40    0.22   -0.04   -0.13    0.00    0.00      -1.25   -0.10   -0.35
#  24   -0.01   -1.65    0.31   -0.15   -0.20    0.00    0.00      -1.70   -0.36   -0.47
#  25    0.33   -1.68    0.39   -0.01   -0.15    0.00    0.00      -1.12   -0.03   -0.34
#  26   -1.22   -0.97    0.19   -0.03   -0.23    0.00    0.00      -2.26   -0.07   -0.48
#  27    0.47   -1.79    0.76   -0.23   -0.21    0.00    0.00      -1.00   -0.50   -0.47
#  28    0.52   -1.13    0.08   -0.12   -0.20    0.00    0.00      -0.85   -0.26   -0.45
#  29   -0.18   -0.13    0.01    0.59   -0.04    0.00    0.00       0.24    4.19   -0.28
#  30   -0.38   -0.21    0.02    1.25   -0.07    0.00    0.00       0.62    5.34   -0.28
#  31   -0.55   -0.13    0.01    0.63   -0.04    0.00    0.00      -0.09    4.33   -0.28
#  32    0.15   -0.33    0.06    1.61   -0.10    0.00    0.00       1.39    4.48   -0.28
#  33    0.00   -0.49    0.12    1.00   -0.09    0.00    0.00       0.54    2.41   -0.22
#  34    0.11   -0.40    0.13    1.70   -0.11    0.00    0.00       1.41    4.21   -0.28
#  35    0.23   -0.15    0.02    0.89   -0.04    0.00    0.00       0.95    6.14   -0.28
#  36    0.24   -0.19    0.03    1.34   -0.05    0.00    0.00       1.39    7.91   -0.28
#  37   -0.27   -0.09    0.00    0.43   -0.02    0.00    0.00       0.04    4.91   -0.28
#  38   -0.33   -0.08    0.00    0.34   -0.02    0.00    0.00      -0.09    3.72   -0.19
#  39    0.13   -0.07    0.00    0.63   -0.02    0.00    0.00       0.66    8.42   -0.28
#  40   -1.42   -0.45    0.30    0.88   -0.06    0.00    0.00      -0.75    3.03   -0.19
#  41   -0.65   -1.47    2.89    1.67   -0.16    0.00    0.00       2.27    2.89   -0.28
#  42    0.34   -0.05    0.00    0.89    0.20    0.00    0.00       1.39    2.65    0.59
#  43    0.39   -0.01    0.00    0.30    0.08    0.00    0.00       0.77    2.26    0.59
#  44   -0.63   -0.41    0.17    0.05   -0.05    0.00    0.00      -0.88    0.19   -0.21
#  45    0.31   -0.46    0.16    0.17   -0.10    0.00    0.00       0.07    0.46   -0.28
#  46   -0.27   -0.81    2.13    0.31   -0.10    0.00    0.00       1.25    0.85   -0.28
#  47   -2.39   -0.22    0.01    0.23   -0.08    0.00    0.00      -2.45    0.84   -0.28

@<TRIPOS>MOLECULE
   compound2don06        94
   47    50     0     0     0



@<TRIPOS>ATOM
      1 C1         26.7685    24.0560    59.0100 C.3        1          -0.0475
      2 N1         28.2089    23.7912    58.8950 N.4        1          -0.3868
      3 H1         28.3796    23.2011    58.0946 H          1           0.4271
      4 C2         28.9284    25.0612    58.7293 C.3        1          -0.0549
      5 C3         28.6813    23.1158    60.1109 C.3        1           0.0482
      6 C4         27.9431    21.8130    60.2808 C.2        1          -0.1401
      7 C5         26.7763    21.7741    60.9813 C.2        1          -0.0248
      8 C6         26.0995    20.5473    61.1296 C.2        1           0.2250
      9 N2         24.9681    20.2320    61.7493 N.2        1          -0.4598
     10 C7         24.7313    18.9243    61.6129 C.2        1           0.1850
     11 C8         25.7682    18.3770    60.8657 C.2        1          -0.0118
     12 N3         26.6248    19.4147    60.5676 N.pl3      1          -0.3418
     13 C9         27.7930    19.4658    59.8683 C.2        1           0.0800
     14 C10        28.4519    20.6350    59.7127 C.2        1          -0.1443
     15 C11        25.9210    16.9685    60.4713 C.ar       1           0.2907
     16 C12        24.7931    16.1606    60.2588 C.ar       1          -0.2998
     17 C13        24.9877    14.8452    59.8898 C.ar       1           0.2122
     18 N4         26.2233    14.3862    59.7480 N.ar       1          -0.5660
     19 C14        27.2724    15.1693    59.9546 C.ar       1           0.5827
     20 N5         28.5445    14.6480    59.7944 N.pl3      1          -0.8118
     21 N6         27.1354    16.4382    60.3039 N.ar       1          -0.5493
     22 C15        23.5687    18.1870    62.1618 C.ar       1          -0.0418
     23 C16        23.7657    17.1427    63.0646 C.ar       1          -0.0242
     24 C17        22.6805    16.4597    63.5732 C.ar       1          -0.1618
     25 C18        21.3962    16.8098    63.1883 C.ar       1           0.1223
     26 F1         20.3364    16.1381    63.6890 F          1          -0.1333
     27 C19        21.1955    17.8472    62.2918 C.ar       1          -0.1609
     28 C20        22.2742    18.5391    61.7814 C.ar       1          -0.0475
     29 H2         26.5841    24.6934    59.8747 H          1           0.1261
     30 H3         26.4180    24.5572    58.1077 H          1           0.1252
     31 H4         26.2346    23.1137    59.1330 H          1           0.1243
     32 H5         29.9971    24.8649    58.6440 H          1           0.1257
     33 H6         28.5778    25.5624    57.8270 H          1           0.1206
     34 H7         28.7441    25.6988    59.5939 H          1           0.1268
     35 H8         29.7501    22.9193    60.0257 H          1           0.1420
     36 H9         28.4970    23.7532    60.9757 H          1           0.1452
     37 H10        26.3736    22.6751    61.4197 H          1           0.1649
     38 H11        28.1944    18.5635    59.4310 H          1           0.1782
     39 H12        29.3749    20.6625    59.1525 H          1           0.1619
     40 H13        23.7967    16.5588    60.3813 H          1           0.1386
     41 H14        24.1418    14.1960    59.7187 H          1           0.1754
     42 H15        28.6594    13.7206    59.5341 H          1           0.4205
     43 H16        29.3211    15.2099    59.9423 H          1           0.4181
     44 H17        24.7663    16.8688    63.3649 H          1           0.1239
     45 H18        22.8320    15.6505    64.2722 H          1           0.1385
     46 H19        20.1927    18.1168    61.9949 H          1           0.1421
     47 H20        22.1166    19.3502    61.0859 H          1           0.1372
@<TRIPOS>BOND
     1    1    2 1
     2    1   29 1
     3    1   30 1
     4    1   31 1
     5    2    3 1
     6    2    4 1
     7    2    5 1
     8    4   32 1
     9    4   33 1
    10    4   34 1
    11    5    6 1
    12    5   35 1
    13    5   36 1
    14    6   14 1
    15    6    7 2
    16    7    8 1
    17    7   37 1
    18    8   12 1
    19    8    9 2
    20    9   10 1
    21   10   11 2
    22   10   22 1
    23   11   12 1
    24   11   15 1
    25   12   13 1
    26   13   14 2
    27   13   38 1
    28   14   39 1
    29   15   21 ar
    30   15   16 ar
    31   16   17 ar
    32   16   40 1
    33   17   18 ar
    34   17   41 1
    35   18   19 ar
    36   19   20 1
    37   19   21 ar
    38   20   42 1
    39   20   43 1
    40   22   28 ar
    41   22   23 ar
    42   23   24 ar
    43   23   44 1
    44   24   25 ar
    45   24   45 1
    46   25   26 1
    47   25   27 ar
    48   27   28 ar
    49   27   46 1
    50   28   47 1
##########                 Name:       compound2don06
##########          Protonation:                   94
##########               SMILES:   C[NH+](C)Cc1ccn2c(c1)nc(c2c3ccnc(n3)N)c4ccc(cc4)F
##########            Long Name:   -4-yl)-2-(4-fluorophenyl)imidazo[1,2-a]pyridin-7-yl]methyl-dimethyl-ammonium
##########          FlexRecCode: 1
##########               Number:                    5
##########   Ligand Source File: /raid1/people/jkarpiak/Desktop/tdt/G128T_ligs/G128T-0000001.db2.gz
##########           GlobalRank: 2
##########                 Rank:                    1
##########               Setnum:                   11
##########             Matchnum:                 4862
##########                Cloud:                    1
##########        Electrostatic:             7.422432
##########        Van der Waals:            -9.407640
##########  Ligand Polar Desolv:            23.307137
########## Ligand Apolar Desolv:            -4.254702
##########      Internal Energy:             0.000000
##########      Receptor Energy: 0.0
########## Receptor Desolvation:             0.000000
########## Receptor Hydrophobic:             0.000000
##########         Total Energy: 17.07
##########        Ligand Charge:             1.000000
##########            Arbitrary:    +999.9990
##########     heavy atom count:   27
##########           pose count:    3
##########        Ligand Energy:             0.000000
# num electro vdwattr vdwrepu polsolv apolsol rdesolv rhydroe totalscore fullpol fullapo
#   1   -0.07   -3.60    4.55   -0.95   -0.29    0.00    0.00      -0.36   -1.59   -0.48
#   2   -1.52   -2.51    2.02   -7.82    0.28    0.00    0.00      -9.54  -12.84    0.46
#   3    1.65   -0.10    0.02    9.20    0.30    0.00    0.00      11.07   17.14    0.56
#   4   -0.17   -1.80    0.55   -1.26   -0.29    0.00    0.00      -2.97   -1.98   -0.46
#   5    0.37   -1.60    0.87    1.10   -0.20    0.00    0.00       0.53    2.01   -0.36
#   6   -0.70   -2.10    0.91   -0.60   -0.16    0.00    0.00      -2.64   -1.19   -0.32
#   7   -0.08   -1.61    0.35   -0.74   -0.16    0.00    0.00      -2.24   -1.71   -0.38
#   8   -0.50   -1.32    0.30    1.15   -0.85    0.00    0.00      -1.21    2.90   -2.13
#   9    3.38   -1.04    0.13   -1.49    0.80    0.00    0.00       1.78   -3.95    2.12
#  10   -1.47   -0.88    0.07    0.12   -0.22    0.00    0.00      -2.38    0.39   -0.73
#  11    0.06   -1.00    0.09   -0.23   -0.25    0.00    0.00      -1.33   -0.69   -0.74
#  12    0.76   -1.35    0.19   -1.69    0.34    0.00    0.00      -1.75   -4.28    0.87
#  13    0.02   -2.50    1.49   -0.10   -0.41    0.00    0.00      -1.50   -0.22   -0.86
#  14   -0.49   -3.15    3.19   -1.04   -0.24    0.00    0.00      -1.74   -1.98   -0.45
#  15   -1.07   -0.86    0.06    0.51   -0.20    0.00    0.00      -1.56    1.61   -0.63
#  16    0.93   -0.65    0.07   -0.54   -0.09    0.00    0.00      -0.27   -2.68   -0.43
#  17   -0.17   -0.41    0.01    0.25   -0.16    0.00    0.00      -0.47    1.54   -0.98
#  18    0.17   -0.54    0.02   -0.59    0.44    0.00    0.00      -0.49   -2.77    2.08
#  19   -0.82   -1.09    0.13    0.55   -1.53    0.00    0.00      -2.76    1.78   -4.94
#  20    0.29   -2.60    1.26   -1.45    0.34    0.00    0.00      -2.15   -4.02    0.95
#  21    1.81   -1.18    0.14   -0.83    0.50    0.00    0.00       0.44   -2.19    1.32
#  22    0.45   -0.79    0.05   -0.02   -0.11    0.00    0.00      -0.41   -0.07   -0.39
#  23    0.22   -1.42    0.30   -0.03   -0.12    0.00    0.00      -1.05   -0.10   -0.35
#  24    1.22   -1.98    0.81   -0.13   -0.16    0.00    0.00      -0.25   -0.36   -0.47
#  25   -1.24   -1.62    0.83   -0.01   -0.10    0.00    0.00      -2.14   -0.03   -0.34
#  26    0.22   -0.97    0.28   -0.02   -0.15    0.00    0.00      -0.64   -0.07   -0.48
#  27    1.84   -0.86    0.20   -0.11   -0.10    0.00    0.00       0.97   -0.50   -0.47
#  28    0.56   -0.70    0.05   -0.06   -0.11    0.00    0.00      -0.27   -0.26   -0.45
#  29    0.73   -1.21    2.92    1.94   -0.13    0.00    0.00       4.24    4.19   -0.28
#  30   -0.41   -2.44    9.32    3.47   -0.18    0.00    0.00       9.77    5.34   -0.28
#  31    0.04   -1.15    1.67    2.53   -0.16    0.00    0.00       2.93    4.33   -0.28
#  32    0.39   -0.43    0.11    2.48   -0.15    0.00    0.00       2.40    4.48   -0.28
#  33   -0.08   -0.93    0.55    1.56   -0.14    0.00    0.00       0.95    2.41   -0.22
#  34    0.67   -0.68    0.49    2.15   -0.14    0.00    0.00       2.49    4.21   -0.28
#  35    1.55   -0.30    0.03    2.21   -0.10    0.00    0.00       3.39    6.14   -0.28
#  36    1.25   -1.36    5.48    3.76   -0.13    0.00    0.00       8.99    7.91   -0.28
#  37    1.21   -0.35    0.09    1.64   -0.09    0.00    0.00       2.50    4.91   -0.28
#  38   -0.12   -0.60    0.39    1.50   -0.08    0.00    0.00       1.09    3.72   -0.19
#  39    0.78   -1.13    2.56    4.47   -0.15    0.00    0.00       6.54    8.42   -0.28
#  40   -0.58   -0.12    0.02    0.31   -0.02    0.00    0.00      -0.39    3.03   -0.19
#  41    0.03   -0.04    0.00    0.12   -0.01    0.00    0.00       0.09    2.89   -0.28
#  42    0.29   -0.03    0.00    0.66    0.15    0.00    0.00       1.07    2.65    0.59
#  43   -0.50   -0.07    0.00    0.87    0.23    0.00    0.00       0.53    2.26    0.59
#  44   -0.74   -0.41    0.11    0.06   -0.07    0.00    0.00      -1.05    0.19   -0.21
#  45   -0.12   -0.53    0.17    0.17   -0.10    0.00    0.00      -0.41    0.46   -0.28
#  46   -1.19   -0.11    0.01    0.09   -0.03    0.00    0.00      -1.23    0.85   -0.28
#  47   -1.43   -0.15    0.01    0.13   -0.04    0.00    0.00      -1.49    0.84   -0.28

@<TRIPOS>MOLECULE
   compound2don06        94
   47    50     0     0     0



@<TRIPOS>ATOM
      1 C1         18.3463    13.0957    65.4290 C.3        1          -0.0475
      2 N1         19.6488    13.3554    64.8012 N.4        1          -0.3868
      3 H1         20.3675    12.8486    65.2958 H          1           0.4271
      4 C2         19.6139    12.9138    63.4006 C.3        1          -0.0549
      5 C3         19.9396    14.7944    64.8540 C.3        1           0.0482
      6 C4         21.2758    15.0607    64.2099 C.2        1          -0.1401
      7 C5         21.4225    16.1006    63.3436 C.2        1          -0.0248
      8 C6         22.6792    16.3349    62.7511 C.2        1           0.2250
      9 N2         23.0914    17.2583    61.8904 N.2        1          -0.4598
     10 C7         24.3858    17.0711    61.6175 C.2        1           0.1850
     11 C8         24.8215    15.9687    62.3441 C.2        1          -0.0118
     12 N3         23.7322    15.5144    63.0555 N.pl3      1          -0.3418
     13 C9         23.5735    14.4769    63.9243 C.2        1           0.0800
     14 C10        22.3764    14.2416    64.5048 C.2        1          -0.1443
     15 C11        26.1774    15.3994    62.3517 C.ar       1           0.2907
     16 C12        27.2970    16.2197    62.1425 C.ar       1          -0.2998
     17 C13        28.5488    15.6391    62.1590 C.ar       1           0.2122
     18 N4         28.6572    14.3347    62.3697 N.ar       1          -0.5660
     19 C14        27.5845    13.5814    62.5646 C.ar       1           0.5827
     20 N5         27.7447    12.2237    62.7815 N.pl3      1          -0.8118
     21 N6         26.3645    14.0939    62.5634 N.ar       1          -0.5493
     22 C15        25.2114    17.8933    60.7016 C.ar       1          -0.0418
     23 C16        25.8163    17.3080    59.5899 C.ar       1          -0.0242
     24 C17        26.5834    18.0774    58.7399 C.ar       1          -0.1618
     25 C18        26.7533    19.4297    58.9894 C.ar       1           0.1223
     26 F1         27.5054    20.1793    58.1541 F          1          -0.1333
     27 C19        26.1537    20.0160    60.0925 C.ar       1          -0.1609
     28 C20        25.3809    19.2557    60.9456 C.ar       1          -0.0475
     29 H2         17.5699    13.6431    64.8948 H          1           0.1261
     30 H3         18.1304    12.0280    65.3898 H          1           0.1252
     31 H4         18.3721    13.4233    66.4683 H          1           0.1243
     32 H5         20.5804    13.1065    62.9347 H          1           0.1257
     33 H6         19.3981    11.8461    63.3615 H          1           0.1206
     34 H7         18.8375    13.4612    62.8662 H          1           0.1268
     35 H8         19.1632    15.3418    64.3195 H          1           0.1420
     36 H9         19.9655    15.1221    65.8932 H          1           0.1452
     37 H10        20.5833    16.7397    63.1122 H          1           0.1649
     38 H11        24.4139    13.8386    64.1542 H          1           0.1782
     39 H12        22.2653    13.4183    65.1950 H          1           0.1619
     40 H13        27.1815    17.2800    61.9726 H          1           0.1386
     41 H14        29.4313    16.2412    62.0010 H          1           0.1754
     42 H15        28.6336    11.8355    62.7895 H          1           0.4205
     43 H16        26.9683    11.6606    62.9257 H          1           0.4181
     44 H17        25.6848    16.2540    59.3948 H          1           0.1239
     45 H18        27.0526    17.6249    57.8788 H          1           0.1385
     46 H19        26.2886    21.0704    60.2828 H          1           0.1421
     47 H20        24.9107    19.7143    61.8030 H          1           0.1372
@<TRIPOS>BOND
     1    1    2 1
     2    1   29 1
     3    1   30 1
     4    1   31 1
     5    2    3 1
     6    2    4 1
     7    2    5 1
     8    4   32 1
     9    4   33 1
    10    4   34 1
    11    5    6 1
    12    5   35 1
    13    5   36 1
    14    6   14 1
    15    6    7 2
    16    7    8 1
    17    7   37 1
    18    8   12 1
    19    8    9 2
    20    9   10 1
    21   10   11 2
    22   10   22 1
    23   11   12 1
    24   11   15 1
    25   12   13 1
    26   13   14 2
    27   13   38 1
    28   14   39 1
    29   15   21 ar
    30   15   16 ar
    31   16   17 ar
    32   16   40 1
    33   17   18 ar
    34   17   41 1
    35   18   19 ar
    36   19   20 1
    37   19   21 ar
    38   20   42 1
    39   20   43 1
    40   22   28 ar
    41   22   23 ar
    42   23   24 ar
    43   23   44 1
    44   24   25 ar
    45   24   45 1
    46   25   26 1
    47   25   27 ar
    48   27   28 ar
    49   27   46 1
    50   28   47 1
