##########                 Name:            E46533629
##########          Protonation:                   53
##########               SMILES:   C[NH+]1CCN(CC1)Cc2nc(nc(n2)Nc3ccccc3)N
##########            Long Name:   -[(4-methylpiperazin-4-ium-1-yl)methyl]-N4-phenyl-1,3,5-triazine-2,4-diamine
##########          FlexRecCode: 1
##########               Number:                   68
##########   Ligand Source File: /raidb/db2/rgc/leads-emolecules-300/leads-emolecules-3-cr-0000005.db2.gz
##########           GlobalRank: 14
##########                 Rank:                    1
##########               Setnum:                  211
##########             Matchnum:                 5461
##########                Cloud:                    1
##########        Electrostatic:           -26.795914
##########        Van der Waals:           -30.614277
##########  Ligand Polar Desolv:            10.737526
########## Ligand Apolar Desolv:            -4.119401
##########      Internal Energy:             0.000000
##########      Receptor Energy: 0.0
########## Receptor Desolvation:             0.000000
########## Receptor Hydrophobic:             0.000000
##########         Total Energy: -50.79
##########        Ligand Charge:             1.000000
##########            Arbitrary:    +999.9990
##########     heavy atom count:   22
##########           pose count:    1
##########        Ligand Energy:             0.000000
# num electro vdwattr vdwrepu polsolv apolsol rdesolv rhydroe totalscore fullpol fullapo
#   1    1.22   -1.00    0.22   -0.65   -0.16    0.00    0.00      -0.37   -1.84   -0.45
#   2    9.68   -1.63    0.96   -4.12    0.21    0.00    0.00       5.10  -10.94    0.57
#   3  -16.80   -0.15    0.06    6.14    0.21    0.00    0.00     -10.54   16.54    0.56
#   4    0.06   -1.11    0.18    0.24   -0.20    0.00    0.00      -0.83    0.53   -0.43
#   5   -0.34   -0.81    0.07    0.15   -0.18    0.00    0.00      -1.11    0.32   -0.39
#   6    4.28   -0.99    0.06   -4.27    1.27    0.00    0.00       0.35  -10.81    3.21
#   7   -0.26   -1.16    0.19    0.91   -0.19    0.00    0.00      -0.51    2.03   -0.42
#   8    1.20   -1.79    0.49    1.79   -0.80    0.00    0.00       0.88    4.02   -1.80
#   9   -6.41   -2.64    1.56   -2.08    0.95    0.00    0.00      -8.62   -4.43    2.03
#  10    7.20   -1.83    0.38    1.53   -2.41    0.00    0.00       4.88    2.96   -4.65
#  11  -10.59   -2.40    0.81   -2.07    0.61    0.00    0.00     -13.64   -3.62    1.06
#  12    2.22   -2.15    0.40    0.41   -0.41    0.00    0.00       0.46    0.66   -0.67
#  13   -1.41   -2.95    1.80   -0.32   -0.24    0.00    0.00      -3.12   -0.54   -0.40
#  14   -0.98   -3.24    2.81   -0.36   -0.29    0.00    0.00      -2.06   -0.58   -0.47
#  15   -0.68   -3.41    1.04   -0.57   -0.31    0.00    0.00      -3.93   -0.86   -0.47
#  16   -0.65   -4.00    1.73   -0.47   -0.32    0.00    0.00      -3.71   -0.70   -0.47
#  17   -1.59   -2.70    0.66   -0.58   -0.29    0.00    0.00      -4.50   -0.93   -0.46
#  18   -3.83   -1.58    0.18   -1.97    0.89    0.00    0.00      -6.31   -3.35    1.52
#  19    2.27   -1.75    0.40    2.41   -2.87    0.00    0.00       0.46    4.18   -4.98
#  20   -3.18   -2.69    0.59   -4.90    0.59    0.00    0.00      -9.59   -7.92    0.95
#  21   -1.26   -1.63    0.32   -2.58    0.84    0.00    0.00      -4.30   -5.57    1.81
#  22   -0.22   -0.60    0.05    0.10   -0.12    0.00    0.00      -0.80    0.32   -0.37
#  23    0.04   -0.64    0.08    0.21   -0.13    0.00    0.00      -0.44    0.69   -0.43
#  24   -2.24   -0.45    0.31    1.10   -0.07    0.00    0.00      -1.35    4.30   -0.28
#  25   -1.96   -0.18    0.02    0.94   -0.05    0.00    0.00      -1.23    4.89   -0.28
#  26   -3.34   -0.52    0.24    0.92   -0.05    0.00    0.00      -2.75    2.58   -0.15
#  27   -3.70   -0.54    0.27    2.45   -0.11    0.00    0.00      -1.63    6.10   -0.28
#  28   -3.09   -0.46    0.13    1.58   -0.12    0.00    0.00      -1.95    3.78   -0.28
#  29   -0.92   -0.40    0.10    0.77   -0.07    0.00    0.00      -0.52    2.35   -0.22
#  30   -1.02   -0.30    0.08    0.70   -0.09    0.00    0.00      -0.63    2.27   -0.28
#  31   -0.15   -0.49    0.15    0.55   -0.10    0.00    0.00      -0.05    1.50   -0.28
#  32   -0.19   -0.59    0.25    0.75   -0.13    0.00    0.00       0.08    1.62   -0.28
#  33    7.67   -0.05    0.00    1.71    0.29    0.00    0.00       9.63    3.43    0.59
#  34    1.53   -0.66    0.29    0.13   -0.12    0.00    0.00       1.17    0.25   -0.23
#  35    1.15   -0.70    0.94    0.39   -0.12    0.00    0.00       1.66    0.90   -0.28
#  36    0.09   -0.98    0.55    0.66   -0.17    0.00    0.00       0.15    1.06   -0.28
#  37    0.51   -1.70    2.25    0.87   -0.19    0.00    0.00       1.74    1.31   -0.28
#  38    1.40   -0.94    1.43    0.71   -0.15    0.00    0.00       2.44    1.35   -0.28
#  39    1.88   -0.05    0.00    2.72    0.36    0.00    0.00       4.92    4.46    0.59
#  40    1.12   -0.05    0.00    2.83    0.30    0.00    0.00       4.20    5.56    0.59
#  41   -0.62   -0.26    0.03    0.47   -0.05    0.00    0.00      -0.43    1.99   -0.21
#  42   -0.99   -0.21    0.05    0.08   -0.03    0.00    0.00      -1.11    0.49   -0.21
#  43   -2.11   -0.25    0.04    0.83   -0.07    0.00    0.00      -1.56    3.28   -0.28
#  44   -1.80   -0.14    0.01    0.63   -0.03    0.00    0.00      -1.33    5.02   -0.28
@<TRIPOS>MOLECULE
E46533629
   44    46     0     0     0
SMALL
USER_CHARGES


@<TRIPOS>ATOM
      1 C1         23.5647   20.9546   60.7402 C.3       1            -0.0579
      2 N1         23.5689   19.6986   59.9782 N.4       1            -0.3849
      3 H1         23.7580   19.8954   59.0068 H         1             0.4304
      4 C2         22.2574   19.0484   60.0995 C.3       1            -0.0025
      5 C3         21.9621   18.7666   61.5743 C.3       1             0.0270
      6 N2         23.0118   17.8969   62.1236 N.3       1            -0.5310
      7 C4         22.7334   17.5565   63.5252 C.3       1             0.1285
      8 C5         21.7150   16.4469   63.5799 C.ar      1             0.4279
      9 N3         20.4262   16.7367   63.6191 N.ar      1            -0.6139
     10 C6         19.5238   15.7595   63.6671 C.ar      1             0.6325
     11 N4         18.1768   16.0634   63.7074 N.pl3     1            -0.6217
     12 C7         17.3978   15.6452   64.7907 C.ar      1             0.1478
     13 C8         16.0499   15.3627   64.6108 C.ar      1            -0.1073
     14 C9         15.2835   14.9494   65.6827 C.ar      1            -0.1015
     15 C10        15.8566   14.8171   66.9343 C.ar      1            -0.1268
     16 C11        17.1984   15.0976   67.1168 C.ar      1            -0.0990
     17 C12        17.9717   15.5059   66.0478 C.ar      1            -0.1391
     18 N5         19.9201   14.4914   63.6755 N.ar      1            -0.6331
     19 C13        21.2164   14.2040   63.6360 C.ar      1             0.6324
     20 N6         21.6331   12.8885   63.6448 N.pl3     1            -0.8010
     21 N7         22.1130   15.1868   63.5831 N.ar      1            -0.6383
     22 C14        24.3339   18.5242   61.9864 C.3       1             0.0227
     23 C15        24.6095   18.8080   60.5085 C.3       1            -0.0028
     24 H2         23.3604   20.7421   61.7895 H         1             0.1256
     25 H3         24.5377   21.4376   60.6498 H         1             0.1266
     26 H4         22.7929   21.6159   60.3464 H         1             0.1207
     27 H5         21.4875   19.7049   59.6939 H         1             0.1386
     28 H6         22.2642   18.1103   59.5446 H         1             0.1394
     29 H7         21.9416   19.7057   62.1271 H         1             0.0661
     30 H8         20.9955   18.2705   61.6633 H         1             0.1277
     31 H9         23.6535   17.2293   64.0094 H         1             0.0795
     32 H10        22.3432   18.4336   64.0415 H         1             0.1189
     33 H11        17.7713   16.5668   62.9842 H         1             0.4281
     34 H12        15.6015   15.4664   63.6337 H         1             0.1268
     35 H13        14.2353   14.7295   65.5436 H         1             0.1268
     36 H14        15.2548   14.4944   67.7711 H         1             0.1266
     37 H15        17.6429   14.9933   68.0955 H         1             0.1295
     38 H16        19.0205   15.7208   66.1902 H         1             0.1260
     39 H17        20.9793   12.1729   63.6797 H         1             0.4216
     40 H18        22.5799   12.6795   63.6160 H         1             0.4196
     41 H19        24.3526   19.4593   62.5461 H         1             0.0686
     42 H20        25.0979   17.8513   62.3763 H         1             0.1223
     43 H21        24.6042   17.8711   59.9515 H         1             0.1365
     44 H22        25.5837   19.2860   60.4063 H         1             0.1359
@<TRIPOS>BOND
     1    1    2 1 
     2    1   24 1 
     3    1   25 1 
     4    1   26 1 
     5    2    3 1 
     6    2   23 1 
     7    2    4 1 
     8    4    5 1 
     9    4   27 1 
    10    4   28 1 
    11    5    6 1 
    12    5   29 1 
    13    5   30 1 
    14    6    7 1 
    15    6   22 1 
    16    7    8 1 
    17    7   31 1 
    18    7   32 1 
    19    8   21 ar
    20    8    9 ar
    21    9   10 ar
    22   10   11 1 
    23   10   18 ar
    24   11   12 1 
    25   11   33 1 
    26   12   17 ar
    27   12   13 ar
    28   13   14 ar
    29   13   34 1 
    30   14   15 ar
    31   14   35 1 
    32   15   16 ar
    33   15   36 1 
    34   16   17 ar
    35   16   37 1 
    36   17   38 1 
    37   18   19 ar
    38   19   20 1 
    39   19   21 ar
    40   20   39 1 
    41   20   40 1 
    42   22   23 1 
    43   22   41 1 
    44   22   42 1 
    45   23   43 1 
    46   23   44 1 
##########                 Name:            E31912892
##########          Protonation:                   20
##########               SMILES:   Cn1c(c(cn1)C(=O)NCCCn2cc[nH+]c2)n3cccc3
##########            Long Name:   -(3-imidazol-3-ium-1-ylpropyl)-1-methyl-5-pyrrol-1-yl-pyrazole-4-carboxamide
##########          FlexRecCode: 1
##########               Number:                  356
##########   Ligand Source File: /raidb/db2/rgc/leads-emolecules-300/leads-emolecules-3-bk-0000008.db2.gz
##########           GlobalRank: 67
##########                 Rank:                    1
##########               Setnum:                  135
##########             Matchnum:                 6129
##########                Cloud:                    1
##########        Electrostatic:           -27.764473
##########        Van der Waals:           -30.862434
##########  Ligand Polar Desolv:            14.705968
########## Ligand Apolar Desolv:            -4.416684
##########      Internal Energy:             0.000000
##########      Receptor Energy: 0.0
########## Receptor Desolvation:             0.000000
########## Receptor Hydrophobic:             0.000000
##########         Total Energy: -48.34
##########        Ligand Charge:             1.000000
##########            Arbitrary:    +999.9990
##########     heavy atom count:   22
##########           pose count:    1
##########        Ligand Energy:             0.000000
# num electro vdwattr vdwrepu polsolv apolsol rdesolv rhydroe totalscore fullpol fullapo
#   1   -0.01   -2.97    1.94    0.39   -0.38    0.00    0.00      -1.03    0.58   -0.56
#   2   -1.30   -2.15    0.31   -1.28    0.78    0.00    0.00      -3.64   -2.05    1.25
#   3   -0.89   -2.75    0.68   -1.28    0.77    0.00    0.00      -3.47   -2.13    1.28
#   4    0.11   -1.97    0.53    0.63   -0.51    0.00    0.00      -1.21    1.25   -1.01
#   5   -0.97   -1.67    0.40   -1.06   -0.21    0.00    0.00      -3.51   -2.23   -0.43
#   6    1.53   -1.83    0.52    2.10   -0.29    0.00    0.00       2.02    4.69   -0.65
#   7   -4.21   -4.08    5.89   -1.07    0.16    0.00    0.00      -3.31   -2.21    0.33
#   8    2.29   -1.23    0.10   -4.22    0.97    0.00    0.00      -2.09  -10.18    2.33
#   9   -0.87   -1.01    0.11    0.80   -0.18    0.00    0.00      -1.14    1.94   -0.43
#  10    1.94   -0.60    0.03   -1.06   -0.08    0.00    0.00       0.23   -3.01   -0.24
#  11   -1.72   -0.84    0.10    1.16   -0.18    0.00    0.00      -1.49    2.89   -0.46
#  12    8.23   -1.57    0.18   -5.81    0.57    0.00    0.00       1.61  -11.91    1.17
#  13   -0.44   -2.28    0.55   -0.20   -0.55    0.00    0.00      -2.92   -0.36   -0.98
#  14   -0.07   -2.68    0.74   -0.29   -0.65    0.00    0.00      -2.96   -0.46   -1.02
#  15    9.96   -3.21    1.39   -8.34    0.69    0.00    0.00       0.49  -13.99    1.15
#  16   -9.30   -0.06    0.00    8.93    0.35    0.00    0.00      -0.08   14.92    0.59
#  17   -6.95   -2.54    0.98    4.48   -1.53    0.00    0.00      -5.56    9.41   -3.21
#  18    1.92   -1.62    0.27    0.76   -1.13    0.00    0.00       0.21    1.30   -1.92
#  19   -3.59   -1.68    0.20   -0.70    0.48    0.00    0.00      -5.29   -1.24    0.84
#  20    0.56   -2.85    1.41    0.03   -0.41    0.00    0.00      -1.26    0.05   -0.76
#  21   -2.87   -3.56    2.01   -0.34   -0.30    0.00    0.00      -5.06   -0.58   -0.51
#  22   -2.35   -2.40    0.69   -0.41   -0.30    0.00    0.00      -4.78   -0.68   -0.51
#  23   -0.34   -2.10    0.58   -0.09   -0.51    0.00    0.00      -2.47   -0.15   -0.85
#  24   -0.15   -1.94    3.62    0.70   -0.19    0.00    0.00       2.05    1.06   -0.28
#  25   -0.25   -1.06    0.93    0.61   -0.17    0.00    0.00       0.06    1.03   -0.28
#  26    0.17   -0.93    0.60    0.46   -0.17    0.00    0.00       0.13    0.71   -0.26
#  27   -0.16   -0.35    0.07    1.63   -0.09    0.00    0.00       1.11    4.79   -0.26
#  28   -1.75   -0.01    0.00    1.58    0.10    0.00    0.00      -0.08    8.04    0.50
#  29   -0.59   -0.39    0.07    0.35   -0.10    0.00    0.00      -0.67    0.94   -0.28
#  30   -0.38   -0.60    0.18    0.34   -0.12    0.00    0.00      -0.58    0.80   -0.28
#  31   -1.30   -0.20    0.02    0.43   -0.05    0.00    0.00      -1.11    2.28   -0.28
#  32   -0.90   -0.13    0.01    0.35   -0.03    0.00    0.00      -0.71    2.96   -0.28
#  33   -3.27   -0.46    0.20    1.40   -0.09    0.00    0.00      -2.22    4.22   -0.28
#  34   -1.77   -0.33    0.10    0.92   -0.08    0.00    0.00      -1.15    3.13   -0.28
#  35   -3.03   -0.62    0.24    3.02   -0.14    0.00    0.00      -0.52    6.05   -0.28
#  36   -3.51   -0.65    0.17    4.05   -0.17    0.00    0.00      -0.11    6.49   -0.28
#  37   -7.02   -0.56    0.28    4.20   -0.11    0.00    0.00      -3.20   11.09   -0.28
#  38    0.89   -0.68    0.43    0.17   -0.11    0.00    0.00       0.70    0.36   -0.24
#  39    1.46   -1.15    1.02    0.36   -0.17    0.00    0.00       1.52    0.58   -0.28
#  40    2.11   -0.43    0.08    0.37   -0.12    0.00    0.00       2.02    0.84   -0.28
#  41    1.01   -0.45    0.09    0.65   -0.14    0.00    0.00       1.16    1.34   -0.28
@<TRIPOS>MOLECULE
E31912892
   41    43     0     0     0
SMALL
USER_CHARGES


@<TRIPOS>ATOM
      1 C1         19.7372   12.0269   63.7285 C.3       1             0.0856
      2 N1         20.7025   13.1283   63.6909 N.pl3     1            -0.3562
      3 N2         22.0951   12.9951   63.6871 N.2       1            -0.2678
      4 C2         22.6378   14.1797   63.6487 C.2       1             0.0938
      5 C3         21.6000   15.1394   63.6258 C.2       1            -0.3050
      6 C4         21.7608   16.6000   63.5809 C.2       1             0.5993
      7 O1         20.9236   17.3201   64.0910 O.2       1            -0.5266
      8 N3         22.8359   17.1412   62.9745 N.am      1            -0.7327
      9 C5         22.9962   18.5968   62.9298 C.3       1             0.1262
     10 C6         23.7616   18.9869   61.6638 C.3       1            -0.1546
     11 C7         22.9816   18.5215   60.4324 C.3       1             0.0950
     12 N4         21.6622   19.1580   60.4209 N.pl3     1            -0.4083
     13 C8         20.4659   18.5430   60.1669 C.2       1             0.0258
     14 C9         19.5133   19.4905   60.2592 C.2       1             0.0041
     15 N5         20.1117   20.6524   60.5613 N.pl3     1            -0.4762
     16 H1         19.6591   21.5011   60.6868 H         1             0.4658
     17 C10        21.3983   20.4597   60.6647 C.cat     1             0.2888
     18 C11        20.3987   14.4403   63.6484 C.2       1             0.3763
     19 N6         19.1229   14.9917   63.6330 N.pl3     1            -0.3984
     20 C12        18.6069   15.7810   62.6430 C.2       1             0.0516
     21 C13        17.3480   16.1183   62.9871 C.2       1            -0.1959
     22 C14        17.0735   15.5177   64.2332 C.2       1            -0.1644
     23 C15        18.1725   14.8304   64.6027 C.2       1            -0.0342
     24 H2         20.2709   11.0769   63.7588 H         1             0.0881
     25 H3         19.1127   12.1212   64.6169 H         1             0.1057
     26 H4         19.1098   12.0630   62.8379 H         1             0.0961
     27 H5         23.6969   14.3914   63.6364 H         1             0.1961
     28 H6         23.5036   16.5671   62.5677 H         1             0.4007
     29 H7         22.0145   19.0702   62.9212 H         1             0.0779
     30 H8         23.5519   18.9282   63.8070 H         1             0.0785
     31 H9         23.8810   20.0698   61.6305 H         1             0.0893
     32 H10        24.7433   18.5133   61.6723 H         1             0.0870
     33 H11        23.5269   18.7994   59.5305 H         1             0.1270
     34 H12        22.8624   17.4386   60.4659 H         1             0.1298
     35 H13        20.3150   17.4987   59.9364 H         1             0.2234
     36 H14        18.4535   19.3411   60.1152 H         1             0.2241
     37 H15        22.1309   21.2166   60.9031 H         1             0.2601
     38 H16        19.1194   16.0826   61.7415 H         1             0.1674
     39 H17        16.6730   16.7360   62.4133 H         1             0.1465
     40 H18        16.1498   15.5914   64.7877 H         1             0.1467
     41 H19        18.2839   14.2538   65.5091 H         1             0.1634
@<TRIPOS>BOND
     1    1    2 1 
     2    1   24 1 
     3    1   25 1 
     4    1   26 1 
     5    2   18 1 
     6    2    3 1 
     7    3    4 2 
     8    4    5 1 
     9    4   27 1 
    10    5    6 1 
    11    5   18 2 
    12    6    7 2 
    13    6    8 am
    14    8    9 1 
    15    8   28 1 
    16    9   10 1 
    17    9   29 1 
    18    9   30 1 
    19   10   11 1 
    20   10   31 1 
    21   10   32 1 
    22   11   12 1 
    23   11   33 1 
    24   11   34 1 
    25   12   17 1 
    26   12   13 1 
    27   13   14 2 
    28   13   35 1 
    29   14   15 1 
    30   14   36 1 
    31   15   16 1 
    32   15   17 2 
    33   17   37 1 
    34   18   19 1 
    35   19   23 1 
    36   19   20 1 
    37   20   21 2 
    38   20   38 1 
    39   21   22 1 
    40   21   39 1 
    41   22   23 2 
    42   22   40 1 
    43   23   41 1 
##########                 Name:            E45565272
##########          Protonation:                   82
##########               SMILES:   COc1ccc(cc1OCc2ccccc2)C/N=N/C(=[NH2+])N
##########            Long Name:   [amino-[(E)-(3-benzyloxy-4-methoxy-phenyl)methylazo]methylene]ammonium
##########          FlexRecCode: 1
##########               Number:                  489
##########   Ligand Source File: /raidb/db2/rgc/leads-emolecules-300/leads-emolecules-3-ck-0000013.db2.gz
##########           GlobalRank: 86
##########                 Rank:                    1
##########               Setnum:                   54
##########             Matchnum:                 5914
##########                Cloud:                    1
##########        Electrostatic:           -26.038424
##########        Van der Waals:           -30.328247
##########  Ligand Polar Desolv:            11.808542
########## Ligand Apolar Desolv:            -3.392322
##########      Internal Energy:             0.000000
##########      Receptor Energy: 0.0
########## Receptor Desolvation:             0.000000
########## Receptor Hydrophobic:             0.000000
##########         Total Energy: -47.95
##########        Ligand Charge:             1.000000
##########            Arbitrary:    +999.9990
##########     heavy atom count:   22
##########           pose count:    1
##########        Ligand Energy:             0.000000
# num electro vdwattr vdwrepu polsolv apolsol rdesolv rhydroe totalscore fullpol fullapo
#   1    0.06   -3.19    2.24    0.07    0.02    0.00    0.00      -0.80    0.11    0.03
#   2   -1.10   -2.15    0.34   -0.95    0.40    0.00    0.00      -3.46   -1.48    0.62
#   3    0.43   -1.84    0.42    0.07   -0.18    0.00    0.00      -1.10    0.12   -0.31
#   4   -0.13   -1.97    0.51   -1.02   -0.21    0.00    0.00      -2.82   -2.03   -0.42
#   5    0.06   -1.58    0.32   -0.51   -0.19    0.00    0.00      -1.91   -1.19   -0.45
#   6    0.01   -1.46    0.22   -0.51   -0.16    0.00    0.00      -1.89   -1.20   -0.38
#   7   -0.30   -0.96    0.10    0.59   -0.22    0.00    0.00      -0.79    1.39   -0.52
#   8    0.91   -1.21    0.09   -1.13    0.85    0.00    0.00      -0.49   -2.62    1.96
#   9    3.66   -1.65    0.37   -2.41    0.49    0.00    0.00       0.46   -5.79    1.17
#  10  -15.80   -2.18    0.69    8.09   -2.24    0.00    0.00     -11.45   18.40   -5.10
#  11   17.04   -2.30    0.64  -11.61    0.50    0.00    0.00       4.27  -21.26    0.91
#  12   21.56   -4.02    4.25   -8.21    0.36    0.00    0.00      13.95  -20.52    0.91
#  13  -10.91   -0.05    0.00    4.82    0.19    0.00    0.00      -5.95   14.94    0.58
#  14  -19.80   -0.31    0.27    6.17    0.27    0.00    0.00     -13.41   13.74    0.60
#  15   -0.80   -1.77    0.45   -0.89   -0.18    0.00    0.00      -3.18   -2.00   -0.40
#  16    0.60   -1.59    0.30    0.12   -0.16    0.00    0.00      -0.73    0.23   -0.31
#  17   -2.56   -1.36    0.14   -1.11    0.34    0.00    0.00      -4.55   -1.96    0.60
#  18    0.77   -1.47    0.40    0.58   -0.06    0.00    0.00       0.23    0.99   -0.10
#  19   -1.09   -2.50    0.96   -0.48   -0.25    0.00    0.00      -3.37   -0.76   -0.39
#  20   -0.76   -2.81    0.63   -0.49   -0.29    0.00    0.00      -3.72   -0.76   -0.45
#  21   -1.32   -3.39    2.16   -0.57   -0.31    0.00    0.00      -3.43   -0.87   -0.47
#  22   -1.43   -2.46    0.63   -0.48   -0.30    0.00    0.00      -4.04   -0.74   -0.47
#  23   -1.60   -2.94    1.26   -0.46   -0.28    0.00    0.00      -4.01   -0.78   -0.47
#  24   -1.22   -3.17    2.07   -0.41   -0.27    0.00    0.00      -2.99   -0.70   -0.45
#  25   -0.03   -1.94    4.03    0.48   -0.18    0.00    0.00       2.36    0.69   -0.26
#  26    0.33   -0.75    0.36    0.47   -0.18    0.00    0.00       0.23    0.74   -0.28
#  27    0.22   -1.38    1.29    0.54   -0.18    0.00    0.00       0.49    0.84   -0.27
#  28   -0.16   -0.53    0.18    0.83   -0.10    0.00    0.00       0.22    1.88   -0.22
#  29   -0.32   -0.26    0.03    0.95   -0.07    0.00    0.00       0.34    3.75   -0.28
#  30   -0.26   -0.56    0.12    1.14   -0.13    0.00    0.00       0.33    2.55   -0.28
#  31   -1.01   -0.23    0.03    0.95   -0.06    0.00    0.00      -0.33    4.32   -0.28
#  32   -7.63   -0.02    0.00    5.06    0.22    0.00    0.00      -2.38   12.51    0.54
#  33  -11.59   -0.06    0.00    6.88    0.28    0.00    0.00      -4.49   14.15    0.58
#  34    1.54   -0.58    0.49    1.00   -0.08    0.00    0.00       2.37    2.86   -0.22
#  35    0.27   -0.70    0.53    0.56   -0.12    0.00    0.00       0.53    1.16   -0.26
#  36    0.49   -0.57    0.30    0.67   -0.12    0.00    0.00       0.77    1.48   -0.27
#  37    0.47   -0.71    0.15    0.88   -0.17    0.00    0.00       0.61    1.42   -0.28
#  38    1.13   -1.10    1.30    0.68   -0.16    0.00    0.00       1.84    1.16   -0.28
#  39    1.67   -0.41    0.06    0.49   -0.15    0.00    0.00       1.66    0.92   -0.28
#  40    1.03   -0.85    0.65    0.48   -0.15    0.00    0.00       1.16    0.88   -0.28
#  41    1.49   -0.78    0.45    0.51   -0.15    0.00    0.00       1.53    0.97   -0.28
@<TRIPOS>MOLECULE
E45565272
   41    42     0     0     0
SMALL
USER_CHARGES


@<TRIPOS>ATOM
      1 C1         20.4513   11.9993   62.5831 C.3       1             0.0218
      2 O1         20.7821   12.7113   63.7772 O.3       1            -0.2990
      3 C2         21.3304   13.9468   63.6274 C.ar      1             0.1291
      4 C3         22.7054   14.0895   63.5326 C.ar      1            -0.1757
      5 C4         23.2611   15.3461   63.3800 C.ar      1            -0.0796
      6 C5         22.4476   16.4625   63.3220 C.ar      1            -0.1128
      7 C6         23.0587   17.8300   63.1561 C.3       1             0.0682
      8 N1         22.3085   18.5809   62.1464 N.2       1            -0.0971
      9 N2         22.6471   19.7376   61.8553 N.2       1            -0.2394
     10 C7         21.9421   20.4431   60.9065 C.cat     1             0.6854
     11 N3         20.8981   19.8842   60.3022 N.pl3     1            -0.7601
     12 N4         22.3052   21.6833   60.5943 N.pl3     1            -0.7221
     13 H1         23.0669   22.0912   61.0350 H         1             0.4458
     14 H2         21.8083   22.1802   59.9257 H         1             0.4541
     15 C8         21.0751   16.3271   63.4157 C.ar      1            -0.1585
     16 C9         20.5114   15.0699   63.5634 C.ar      1             0.1059
     17 O2         19.1610   14.9346   63.6505 O.3       1            -0.2916
     18 C10        18.6438   14.3457   64.8454 C.3       1             0.1046
     19 C11        17.2722   14.9032   65.1271 C.ar      1            -0.1054
     20 C12        16.8261   15.0155   66.4306 C.ar      1            -0.0955
     21 C13        15.5681   15.5268   66.6890 C.ar      1            -0.1222
     22 C14        14.7561   15.9259   65.6435 C.ar      1            -0.1035
     23 C15        15.2027   15.8146   64.3403 C.ar      1            -0.1204
     24 C16        16.4624   15.3074   64.0822 C.ar      1            -0.0930
     25 H3         20.0234   11.0313   62.8441 H         1             0.0609
     26 H4         19.7260   12.5736   62.0067 H         1             0.1080
     27 H5         21.3521   11.8499   61.9878 H         1             0.0591
     28 H6         23.3430   13.2190   63.5783 H         1             0.1457
     29 H7         24.3329   15.4559   63.3061 H         1             0.1372
     30 H8         23.0216   18.3624   64.1065 H         1             0.1026
     31 H9         24.0959   17.7283   62.8370 H         1             0.1548
     32 H10        20.6331   18.9793   60.5300 H         1             0.4516
     33 H11        20.4013   20.3814   59.6337 H         1             0.4359
     34 H12        20.4419   17.2008   63.3698 H         1             0.1368
     35 H13        18.5778   13.2651   64.7187 H         1             0.0725
     36 H14        19.3070   14.5740   65.6796 H         1             0.0663
     37 H15        17.4603   14.7035   67.2472 H         1             0.1210
     38 H16        15.2193   15.6139   67.7074 H         1             0.1273
     39 H17        13.7733   16.3251   65.8459 H         1             0.1279
     40 H18        14.5683   16.1263   63.5236 H         1             0.1287
     41 H19        16.8126   15.2237   63.0640 H         1             0.1247
@<TRIPOS>BOND
     1    1    2 1 
     2    1   25 1 
     3    1   26 1 
     4    1   27 1 
     5    2    3 1 
     6    3   16 ar
     7    3    4 ar
     8    4    5 ar
     9    4   28 1 
    10    5    6 ar
    11    5   29 1 
    12    6    7 1 
    13    6   15 ar
    14    7    8 1 
    15    7   30 1 
    16    7   31 1 
    17    8    9 2 
    18    9   10 1 
    19   10   11 1 
    20   10   12 2 
    21   11   32 1 
    22   11   33 1 
    23   12   13 1 
    24   12   14 1 
    25   15   16 ar
    26   15   34 1 
    27   16   17 1 
    28   17   18 1 
    29   18   19 1 
    30   18   35 1 
    31   18   36 1 
    32   19   24 ar
    33   19   20 ar
    34   20   21 ar
    35   20   37 1 
    36   21   22 ar
    37   21   38 1 
    38   22   23 ar
    39   22   39 1 
    40   23   24 ar
    41   23   40 1 
    42   24   41 1 
##########                 Name:            E46140394
##########          Protonation:                   14
##########               SMILES:   c1ccnc(c1)C[NH+]2C[C@@H]3CN(C[C@H]3C2)Cc4cccnc4
##########            Long Name:   l)-5-(3-pyridylmethyl)-2,3,3a,4,6,6a-hexahydro-1H-pyrrolo[3,4-c]pyrrol-2-ium
##########          FlexRecCode: 1
##########               Number:                  133
##########   Ligand Source File: /raidb/db2/rgc/leads-emolecules-300/leads-emolecules-2g-0000167.db2.gz
##########           GlobalRank: 169
##########                 Rank:                    1
##########               Setnum:                  134
##########             Matchnum:                 1931
##########                Cloud:                    1
##########        Electrostatic:           -26.557482
##########        Van der Waals:           -25.986141
##########  Ligand Polar Desolv:             7.885161
########## Ligand Apolar Desolv:            -1.893940
##########      Internal Energy:             0.000000
##########      Receptor Energy: 0.0
########## Receptor Desolvation:             0.000000
########## Receptor Hydrophobic:             0.000000
##########         Total Energy: -46.55
##########        Ligand Charge:             1.000000
##########            Arbitrary:    +999.9990
##########     heavy atom count:   22
##########           pose count:    1
##########        Ligand Energy:             0.000000
# num electro vdwattr vdwrepu polsolv apolsol rdesolv rhydroe totalscore fullpol fullapo
#   1   -0.03   -1.08    0.20    0.66   -0.15    0.00    0.00      -0.39    1.58   -0.36
#   2    2.54   -1.25    0.36   -3.44    1.27    0.00    0.00      -0.54   -9.71    3.57
#   3   -0.45   -0.59    0.05    0.29   -0.14    0.00    0.00      -0.83    0.98   -0.46
#   4    1.83   -0.54    0.02   -1.21   -0.06    0.00    0.00       0.05   -3.78   -0.18
#   5   -0.38   -0.59    0.08    0.38   -0.14    0.00    0.00      -0.65    1.34   -0.48
#   6   10.41   -1.85    1.48   -4.22    0.17    0.00    0.00       5.99  -11.62    0.47
#   7  -18.24   -0.21    0.13    5.02    0.20    0.00    0.00     -13.10   13.87    0.56
#   8   -1.32   -1.19    0.33    0.77   -0.12    0.00    0.00      -1.52    2.25   -0.35
#   9   -0.65   -1.31    0.33    0.52   -0.19    0.00    0.00      -1.30    1.72   -0.62
#  10    0.85   -0.59    0.03   -0.69   -0.09    0.00    0.00      -0.49   -3.07   -0.42
#  11    0.16   -0.60    0.03   -0.45   -0.12    0.00    0.00      -0.98   -1.87   -0.48
#  12    0.42   -1.14    0.20   -0.95   -0.16    0.00    0.00      -1.63   -2.86   -0.48
#  13   -0.53   -1.56    0.36    0.29   -0.37    0.00    0.00      -1.80    0.78   -0.98
#  14    2.92   -2.45    1.18   -3.22    0.69    0.00    0.00      -0.87   -9.01    1.94
#  15   -0.42   -1.09    0.20    0.41   -0.16    0.00    0.00      -1.07    0.93   -0.37
#  16    2.14   -0.82    0.10   -1.24   -0.08    0.00    0.00       0.11   -3.13   -0.21
#  17   -0.45   -0.93    0.28    0.47   -0.19    0.00    0.00      -0.82    1.14   -0.47
#  18   -0.31   -1.71    0.41   -0.61   -0.17    0.00    0.00      -2.39   -1.28   -0.36
#  19   -0.28   -1.62    0.32   -0.39   -0.24    0.00    0.00      -2.21   -0.76   -0.46
#  20   -0.89   -1.74    0.25   -0.84   -0.29    0.00    0.00      -3.51   -1.40   -0.48
#  21    0.34   -2.56    0.50    0.11   -0.63    0.00    0.00      -2.24    0.17   -0.98
#  22   -2.27   -3.28    1.05   -1.82    1.28    0.00    0.00      -5.03   -2.89    2.04
#  23    0.14   -2.25    0.61    0.40   -0.46    0.00    0.00      -1.55    0.74   -0.85
#  24    0.00   -0.52    0.31    0.49   -0.09    0.00    0.00       0.17    1.46   -0.28
#  25    0.11   -0.43    0.11    0.49   -0.10    0.00    0.00       0.18    1.33   -0.28
#  26   -0.59   -0.38    0.21    0.24   -0.04    0.00    0.00      -0.56    1.07   -0.19
#  27   -0.67   -0.13    0.01    0.14   -0.04    0.00    0.00      -0.70    0.99   -0.28
#  28   -0.94   -0.22    0.02    0.81   -0.06    0.00    0.00      -0.40    3.52   -0.27
#  29   -1.47   -0.12    0.00    0.73   -0.03    0.00    0.00      -0.88    5.83   -0.26
#  30   -2.15   -0.21    0.04    0.74   -0.05    0.00    0.00      -1.62    4.44   -0.28
#  31   -4.28   -0.89    1.22    2.60   -0.10    0.00    0.00      -1.46    6.66   -0.26
#  32   -2.58   -0.43    0.34    1.22   -0.07    0.00    0.00      -1.52    4.86   -0.28
#  33   -0.59   -0.09    0.00    0.48   -0.02    0.00    0.00      -0.22    5.69   -0.27
#  34   -0.02   -0.10    0.00    0.26   -0.03    0.00    0.00       0.12    2.72   -0.28
#  35   -0.24   -0.31    0.08    0.52   -0.08    0.00    0.00      -0.04    1.81   -0.28
#  36   -0.77   -0.33    0.06    0.74   -0.10    0.00    0.00      -0.40    2.11   -0.28
#  37   -2.71   -0.31    0.04    1.83   -0.08    0.00    0.00      -1.22    5.60   -0.24
#  38   -3.95   -0.65    0.44    1.72   -0.11    0.00    0.00      -2.54    4.21   -0.28
#  39   -2.18   -0.45    0.21    0.87   -0.10    0.00    0.00      -1.66    2.44   -0.28
#  40   -0.65   -0.65    1.07    0.43   -0.10    0.00    0.00       0.10    1.27   -0.28
#  41   -0.29   -0.24    0.02    0.53   -0.07    0.00    0.00      -0.04    2.09   -0.27
#  42    1.27   -0.34    0.06    0.60   -0.09    0.00    0.00       1.50    1.79   -0.28
#  43    0.99   -0.40    0.12    0.56   -0.11    0.00    0.00       1.15    1.39   -0.28
#  44   -0.11   -0.84    0.46    0.63   -0.18    0.00    0.00      -0.05    1.00   -0.28
#  45   -0.24   -0.47    0.14    1.02   -0.10    0.00    0.00       0.34    2.46   -0.24
@<TRIPOS>MOLECULE
E46140394
   45    48     0     0     0
SMALL
USER_CHARGES


@<TRIPOS>ATOM
      1 C1         23.0209   16.1093   63.5733 C.3       1             0.0917
      2 N1         23.2827   16.4602   62.1710 N.3       1            -0.5114
      3 C2         24.5450   17.2563   62.0435 C.3       1             0.0602
      4 C3         24.0963   18.5972   61.5589 C.3       1            -0.1563
      5 C4         24.8120   19.5684   60.6764 C.3       1             0.0244
      6 N2         23.7222   20.2651   59.9214 N.4       1            -0.3996
      7 H1         23.8991   20.2029   58.9300 H         1             0.4320
      8 C5         23.6561   21.6748   60.3293 C.3       1             0.0610
      9 C6         24.7319   22.4545   59.6182 C.ar      1             0.0532
     10 C7         25.9815   22.5777   60.1963 C.ar      1            -0.1447
     11 C8         26.9641   23.2972   59.5340 C.ar      1            -0.0673
     12 C9         26.6519   23.8684   58.3095 C.ar      1            -0.1354
     13 C10        25.3805   23.7028   57.7940 C.ar      1             0.1114
     14 N3         24.4719   23.0069   58.4495 N.ar      1            -0.4671
     15 C11        22.4293   19.5776   60.2518 C.3       1             0.0182
     16 C12        22.8889   18.1843   60.6247 C.3       1            -0.1366
     17 C13        22.1647   17.2874   61.6059 C.3       1             0.0609
     18 C14        22.0709   14.9408   63.6298 C.ar      1            -0.1426
     19 C15        20.7008   15.1510   63.6662 C.ar      1            -0.0516
     20 C16        19.8649   14.0463   63.7179 C.ar      1            -0.1683
     21 C17        20.4211   12.7809   63.7311 C.ar      1             0.1058
     22 N4         21.7291   12.6187   63.6958 N.ar      1            -0.4828
     23 C18        22.5541   13.6463   63.6403 C.ar      1             0.1024
     24 H2         23.9576   15.8399   64.0613 H         1             0.0537
     25 H3         22.5772   16.9634   64.0849 H         1             0.0944
     26 H4         25.0368   17.3469   63.0120 H         1             0.0831
     27 H5         25.2143   16.7940   61.3180 H         1             0.0942
     28 H6         23.6846   19.1513   62.4025 H         1             0.0936
     29 H7         25.3760   20.2829   61.2759 H         1             0.1401
     30 H8         25.4739   19.0414   59.9890 H         1             0.1389
     31 H9         22.6794   22.0828   60.0693 H         1             0.1404
     32 H10        23.8057   21.7486   61.4065 H         1             0.1462
     33 H11        26.1896   22.1195   61.1518 H         1             0.1417
     34 H12        27.9494   23.4103   59.9615 H         1             0.1496
     35 H13        27.3927   24.4360   57.7660 H         1             0.1514
     36 H14        25.1293   24.1446   56.8410 H         1             0.1720
     37 H15        21.9372   20.0621   61.0951 H         1             0.1333
     38 H16        21.7723   19.5492   59.3824 H         1             0.1368
     39 H17        23.2259   17.6322   59.7475 H         1             0.1204
     40 H18        21.4382   16.6578   61.0920 H         1             0.1041
     41 H19        21.6846   17.8761   62.3875 H         1             0.0656
     42 H20        20.2944   16.1516   63.6551 H         1             0.1361
     43 H21        18.7927   14.1727   63.7476 H         1             0.1400
     44 H22        19.7768   11.9151   63.7713 H         1             0.1599
     45 H23        23.6198   13.4739   63.6072 H         1             0.1470
@<TRIPOS>BOND
     1    1    2 1 
     2    1   18 1 
     3    1   24 1 
     4    1   25 1 
     5    2   17 1 
     6    2    3 1 
     7    3    4 1 
     8    3   26 1 
     9    3   27 1 
    10    4   16 1 
    11    4    5 1 
    12    4   28 1 
    13    5    6 1 
    14    5   29 1 
    15    5   30 1 
    16    6    7 1 
    17    6    8 1 
    18    6   15 1 
    19    8    9 1 
    20    8   31 1 
    21    8   32 1 
    22    9   14 ar
    23    9   10 ar
    24   10   11 ar
    25   10   33 1 
    26   11   12 ar
    27   11   34 1 
    28   12   13 ar
    29   12   35 1 
    30   13   14 ar
    31   13   36 1 
    32   15   16 1 
    33   15   37 1 
    34   15   38 1 
    35   16   17 1 
    36   16   39 1 
    37   17   40 1 
    38   17   41 1 
    39   18   23 ar
    40   18   19 ar
    41   19   20 ar
    42   19   42 1 
    43   20   21 ar
    44   20   43 1 
    45   21   22 ar
    46   21   44 1 
    47   22   23 ar
    48   23   45 1 
##########                 Name:            E43347319
##########          Protonation:                   99
##########               SMILES:   C[NH+]1CC[C@@H](CC1)CCNC(=O)CSc2ccccc2
##########            Long Name:   N-[2-(1-methylpiperidin-1-ium-4-yl)ethyl]-2-phenylsulfanyl-acetamide
##########          FlexRecCode: 1
##########               Number:                  321
##########   Ligand Source File: /raidb/db2/rgc/leads-emolecules-300/leads-emolecules-2f-0000175.db2.gz
##########           GlobalRank: 233
##########                 Rank:                    1
##########               Setnum:                  232
##########             Matchnum:                 2489
##########                Cloud:                    1
##########        Electrostatic:           -22.983194
##########        Van der Waals:           -31.207289
##########  Ligand Polar Desolv:            12.020864
########## Ligand Apolar Desolv:            -3.804633
##########      Internal Energy:             0.000000
##########      Receptor Energy: 0.0
########## Receptor Desolvation:             0.000000
########## Receptor Hydrophobic:             0.000000
##########         Total Energy: -45.97
##########        Ligand Charge:             1.000000
##########            Arbitrary:    +999.9990
##########     heavy atom count:   20
##########           pose count:    1
##########        Ligand Energy:             0.000000
# num electro vdwattr vdwrepu polsolv apolsol rdesolv rhydroe totalscore fullpol fullapo
#   1    1.14   -0.81    0.22   -0.62   -0.14    0.00    0.00      -0.22   -1.96   -0.44
#   2    8.74   -1.30    0.26   -4.66    0.23    0.00    0.00       3.28  -11.23    0.56
#   3  -13.23   -0.05    0.00    6.46    0.22    0.00    0.00      -6.60   16.37    0.56
#   4    0.13   -0.98    0.14    0.09   -0.19    0.00    0.00      -0.81    0.21   -0.42
#   5    1.30   -0.97    0.11   -1.56   -0.09    0.00    0.00      -1.21   -3.76   -0.21
#   6    0.54   -0.71    0.06   -0.83   -0.06    0.00    0.00      -1.01   -2.10   -0.16
#   7    0.23   -1.09    0.20   -0.93   -0.09    0.00    0.00      -1.67   -2.26   -0.21
#   8    0.02   -1.08    0.21    0.69   -0.18    0.00    0.00      -0.34    1.54   -0.41
#   9   -2.56   -1.63    0.33   -4.40    1.12    0.00    0.00      -7.14   -9.09    2.32
#  10    2.12   -1.78    0.32    2.43   -0.39    0.00    0.00       2.69    4.09   -0.66
#  11   -2.01   -2.27    0.38   -0.82    0.24    0.00    0.00      -4.48   -1.32    0.38
#  12   -0.82   -1.35    0.32   -0.69   -0.06    0.00    0.00      -2.62   -1.15   -0.10
#  13   -0.43   -2.98    0.58   -0.40   -0.42    0.00    0.00      -3.64   -0.70   -0.75
#  14   -1.29   -2.23    0.56   -0.25   -0.18    0.00    0.00      -3.39   -0.39   -0.29
#  15   -1.92   -2.82    1.27   -0.54   -0.26    0.00    0.00      -4.27   -0.91   -0.44
#  16   -1.19   -2.79    1.95   -0.46   -0.29    0.00    0.00      -2.78   -0.74   -0.47
#  17   -0.95   -2.96    0.95   -0.49   -0.30    0.00    0.00      -3.75   -0.77   -0.47
#  18   -0.34   -3.64    1.17   -0.31   -0.31    0.00    0.00      -3.45   -0.47   -0.47
#  19   -0.68   -2.72    0.56   -0.25   -0.30    0.00    0.00      -3.38   -0.39   -0.46
#  20    1.51   -0.91    0.29   -1.32   -0.06    0.00    0.00      -0.50   -3.88   -0.19
#  21    0.15   -1.48    0.68    0.12   -0.18    0.00    0.00      -0.72    0.27   -0.42
#  22   -1.58   -0.13    0.00    0.48   -0.03    0.00    0.00      -1.26    4.00   -0.28
#  23   -3.04   -0.57    0.74    1.01   -0.07    0.00    0.00      -1.93    4.35   -0.28
#  24   -2.28   -0.19    0.02    0.62   -0.03    0.00    0.00      -1.86    3.18   -0.15
#  25   -2.84   -0.59    0.44    1.80   -0.10    0.00    0.00      -1.30    5.07   -0.28
#  26   -1.98   -0.30    0.05    1.39   -0.09    0.00    0.00      -0.94    4.21   -0.28
#  27   -0.82   -0.28    0.03    0.80   -0.06    0.00    0.00      -0.33    2.87   -0.22
#  28   -0.63   -0.53    0.13    0.86   -0.12    0.00    0.00      -0.29    1.99   -0.28
#  29   -0.26   -0.24    0.04    0.42   -0.07    0.00    0.00      -0.12    1.67   -0.28
#  30   -0.32   -0.36    0.10    0.54   -0.07    0.00    0.00      -0.11    2.11   -0.28
#  31    0.07   -0.61    0.23    0.61   -0.12    0.00    0.00       0.18    1.45   -0.28
#  32   -0.18   -0.33    0.15    0.09   -0.08    0.00    0.00      -0.36    0.31   -0.28
#  33    0.12   -0.64    0.55    0.31   -0.09    0.00    0.00       0.26    0.81   -0.23
#  34    2.38   -0.02    0.00    2.33    0.18    0.00    0.00       4.87    7.43    0.57
#  35    0.55   -0.62    0.37    1.12   -0.14    0.00    0.00       1.28    2.11   -0.27
#  36    0.41   -0.54    0.19    0.95   -0.13    0.00    0.00       0.88    1.99   -0.27
#  37    1.47   -0.63    0.18    1.00   -0.11    0.00    0.00       1.90    1.83   -0.21
#  38    1.39   -0.42    0.11    0.71   -0.12    0.00    0.00       1.67    1.61   -0.28
#  39    0.88   -0.63    0.18    0.61   -0.15    0.00    0.00       0.88    1.11   -0.28
#  40   -0.37   -1.15    0.63    0.52   -0.18    0.00    0.00      -0.56    0.79   -0.28
#  41    0.71   -0.64    0.20    0.12   -0.16    0.00    0.00       0.22    0.20   -0.28
#  42   -0.89   -0.14    0.01    0.41   -0.03    0.00    0.00      -0.66    2.70   -0.22
#  43   -0.87   -0.64    0.86    0.33   -0.07    0.00    0.00      -0.39    1.12   -0.23
#  44   -2.31   -0.58    0.31    1.72   -0.12    0.00    0.00      -0.98    4.04   -0.28
#  45   -3.04   -0.89    1.01    2.03   -0.13    0.00    0.00      -1.02    4.52   -0.28
@<TRIPOS>MOLECULE
E43347319
   45    46     0     0     0
SMALL
USER_CHARGES


@<TRIPOS>ATOM
      1 C1         24.2733   19.7131   60.4046 C.3       1            -0.0580
      2 N1         22.8822   19.3048   60.1672 N.4       1            -0.3818
      3 H1         22.5134   19.8138   59.3780 H         1             0.4290
      4 C2         22.0770   19.6009   61.3581 C.3       1            -0.0078
      5 C3         22.6790   18.8939   62.5744 C.3       1            -0.1445
      6 C4         22.6896   17.3828   62.3262 C.3       1            -0.0966
      7 C5         23.3626   16.6756   63.5042 C.3       1            -0.1295
      8 C6         22.9483   15.2027   63.5190 C.3       1             0.1174
      9 N2         21.4931   15.1062   63.6581 N.am      1            -0.7313
     10 C7         20.8985   13.8974   63.6949 C.2       1             0.5360
     11 O1         21.5680   12.8894   63.6128 O.2       1            -0.5113
     12 C8         19.4015   13.7980   63.8379 C.3       1            -0.1558
     13 S1         18.6916   15.4645   63.9351 S.3       1            -0.0345
     14 C9         17.2520   15.2571   64.9297 C.ar      1            -0.1028
     15 C10        15.9989   15.5665   64.4146 C.ar      1            -0.1379
     16 C11        14.8730   15.4028   65.1969 C.ar      1            -0.0999
     17 C12        14.9912   14.9314   66.4918 C.ar      1            -0.1215
     18 C13        16.2367   14.6229   67.0080 C.ar      1            -0.0971
     19 C14        17.3664   14.7783   66.2293 C.ar      1            -0.0970
     20 C15        23.4696   17.0920   61.0409 C.3       1            -0.1511
     21 C16        22.8379   17.8654   59.8832 C.3       1            -0.0080
     22 H2         24.6728   19.1637   61.2570 H         1             0.1239
     23 H3         24.8717   19.4960   59.5198 H         1             0.1237
     24 H4         24.3075   20.7824   60.6131 H         1             0.1258
     25 H5         22.0678   20.6770   61.5317 H         1             0.1315
     26 H6         21.0567   19.2501   61.2028 H         1             0.1303
     27 H7         23.6992   19.2442   62.7309 H         1             0.0908
     28 H8         22.0786   19.1136   63.4573 H         1             0.1129
     29 H9         21.6657   17.0235   62.2220 H         1             0.0954
     30 H10        24.4454   16.7474   63.4007 H         1             0.0774
     31 H11        23.0545   17.1490   64.4365 H         1             0.0837
     32 H12        23.2564   14.7295   62.5868 H         1             0.0728
     33 H13        23.4278   14.6989   64.3582 H         1             0.0708
     34 H14        20.9576   15.9124   63.7237 H         1             0.4045
     35 H15        18.9880   13.2767   62.9747 H         1             0.1184
     36 H16        19.1591   13.2463   64.7462 H         1             0.1188
     37 H17        15.9059   15.9350   63.4036 H         1             0.1187
     38 H18        13.8989   15.6434   64.7974 H         1             0.1267
     39 H19        14.1088   14.8043   67.1015 H         1             0.1279
     40 H20        16.3253   14.2554   68.0196 H         1             0.1314
     41 H21        18.3381   14.5323   66.6313 H         1             0.1297
     42 H22        24.5062   17.4050   61.1655 H         1             0.0916
     43 H23        23.4343   16.0237   60.8275 H         1             0.1150
     44 H24        21.8015   17.5516   59.7593 H         1             0.1308
     45 H25        23.3912   17.6593   58.9668 H         1             0.1317
@<TRIPOS>BOND
     1    1    2 1 
     2    1   22 1 
     3    1   23 1 
     4    1   24 1 
     5    2    3 1 
     6    2   21 1 
     7    2    4 1 
     8    4    5 1 
     9    4   25 1 
    10    4   26 1 
    11    5    6 1 
    12    5   27 1 
    13    5   28 1 
    14    6    7 1 
    15    6   20 1 
    16    6   29 1 
    17    7    8 1 
    18    7   30 1 
    19    7   31 1 
    20    8    9 1 
    21    8   32 1 
    22    8   33 1 
    23    9   10 am
    24    9   34 1 
    25   10   11 2 
    26   10   12 1 
    27   12   13 1 
    28   12   35 1 
    29   12   36 1 
    30   13   14 1 
    31   14   19 ar
    32   14   15 ar
    33   15   16 ar
    34   15   37 1 
    35   16   17 ar
    36   16   38 1 
    37   17   18 ar
    38   17   39 1 
    39   18   19 ar
    40   18   40 1 
    41   19   41 1 
    42   20   21 1 
    43   20   42 1 
    44   20   43 1 
    45   21   44 1 
    46   21   45 1 
##########                 Name:            E36442237
##########          Protonation:                   99
##########               SMILES:   c1cnc2c(cnn2c1)c3cc(cc4c3O[C@H](C4)C[NH3+])F
##########            Long Name:   ro-7-pyrazolo[1,5-a]pyrimidin-3-yl-2,3-dihydrobenzofuran-2-yl]methylammonium
##########          FlexRecCode: 1
##########               Number:                  854
##########   Ligand Source File: /raidb/db2/rgc/leads-emolecules-300/leads-emolecules-2a-0000070.db2.gz
##########           GlobalRank: 262
##########                 Rank:                    1
##########               Setnum:                   24
##########             Matchnum:                 2062
##########                Cloud:                    1
##########        Electrostatic:           -21.111008
##########        Van der Waals:           -29.617416
##########  Ligand Polar Desolv:             8.466950
########## Ligand Apolar Desolv:            -3.481223
##########      Internal Energy:             0.000000
##########      Receptor Energy: 0.0
########## Receptor Desolvation:             0.000000
########## Receptor Hydrophobic:             0.000000
##########         Total Energy: -45.74
##########        Ligand Charge:             1.000000
##########            Arbitrary:    +999.9990
##########     heavy atom count:   21
##########           pose count:    1
##########        Ligand Energy:             0.000000
# num electro vdwattr vdwrepu polsolv apolsol rdesolv rhydroe totalscore fullpol fullapo
#   1    8.88   -0.74    0.04   -8.61    0.32    0.00    0.00      -0.11  -23.41    0.86
#   2   -4.51   -0.01    0.00    2.23    0.07    0.00    0.00      -2.21   18.19    0.58
#   3   -6.91   -0.01    0.00    3.04    0.09    0.00    0.00      -3.79   19.30    0.60
#   4   -8.17   -0.02    0.00    4.12    0.15    0.00    0.00      -3.91   15.72    0.56
#   5   -0.01   -0.76    0.06    0.54   -0.21    0.00    0.00      -0.39    1.23   -0.47
#   6   -0.19   -0.97    0.31    0.42   -0.07    0.00    0.00      -0.49    1.02   -0.16
#   7    0.22   -0.92    0.28   -0.85   -0.11    0.00    0.00      -1.37   -2.20   -0.28
#   8   -0.27   -1.68    0.56   -0.92   -0.20    0.00    0.00      -2.51   -1.98   -0.44
#   9    0.63   -1.63    0.35    0.83   -0.15    0.00    0.00       0.03    1.77   -0.32
#  10   -1.76   -1.64    0.58   -2.57    0.41    0.00    0.00      -4.98   -5.75    0.92
#  11    0.30   -1.64    0.22   -0.08   -0.22    0.00    0.00      -1.42   -0.15   -0.40
#  12   -0.51   -2.28    0.79   -0.49   -0.27    0.00    0.00      -2.76   -0.81   -0.45
#  13    0.42   -2.84    1.37   -0.11   -0.21    0.00    0.00      -1.37   -0.17   -0.34
#  14   -0.74   -3.79    4.21   -0.31   -0.32    0.00    0.00      -0.95   -0.47   -0.48
#  15   -0.28   -2.09    0.53   -0.62   -0.26    0.00    0.00      -2.71   -1.13   -0.47
#  16   -2.87   -1.97    0.35   -0.99   -0.23    0.00    0.00      -5.71   -1.69   -0.39
#  17    3.54   -2.22    0.51    1.36   -1.36    0.00    0.00       1.83    2.16   -2.16
#  18   -2.67   -2.89    0.80   -3.66    1.31    0.00    0.00      -7.12   -5.72    2.04
#  19    0.52   -3.72    1.45    2.10   -0.65    0.00    0.00      -0.30    3.16   -0.98
#  20   -2.06   -2.84    0.79   -1.91   -0.30    0.00    0.00      -6.33   -2.96   -0.47
#  21    2.53   -2.55    0.72    0.82   -0.61    0.00    0.00       0.91    1.30   -0.96
#  22   -5.30   -2.63    0.72   -1.54    0.46    0.00    0.00      -8.28   -2.56    0.76
#  23   -5.63   -4.56    3.39   -1.25    0.79    0.00    0.00      -7.26   -2.05    1.30
#  24    2.03   -3.61    2.81    0.31   -0.61    0.00    0.00       0.93    0.53   -1.05
#  25   -1.00   -0.31    0.03    2.82   -0.10    0.00    0.00       1.44    7.94   -0.28
#  26   -1.90   -0.28    0.04    1.42   -0.08    0.00    0.00      -0.80    4.85   -0.28
#  27   -0.85   -0.64    0.98    1.36   -0.10    0.00    0.00       0.76    4.00   -0.28
#  28   -0.49   -0.34    0.23    0.67   -0.07    0.00    0.00       0.00    2.87   -0.28
#  29   -0.22   -0.26    0.03    0.88   -0.07    0.00    0.00       0.35    3.28   -0.27
#  30    0.41   -0.64    0.30    0.16   -0.14    0.00    0.00       0.09    0.32   -0.28
#  31    0.09   -0.48    0.13    0.73   -0.13    0.00    0.00       0.35    1.62   -0.28
#  32   -0.93   -1.11    0.54    3.46   -0.18    0.00    0.00       1.77    5.29   -0.28
#  33    1.40   -0.63    0.19    2.66   -0.15    0.00    0.00       3.47    4.90   -0.28
#  34    2.72   -0.49    0.10    1.48   -0.14    0.00    0.00       3.67    2.90   -0.28
#  35    2.47   -0.92    1.07    0.95   -0.14    0.00    0.00       3.43    1.87   -0.28
@<TRIPOS>MOLECULE
E36442237
   35    38     0     0     0
SMALL
USER_CHARGES


@<TRIPOS>ATOM
      1 N1         23.5062   18.6037   61.1879 N.4       1            -0.6363
      2 H1         24.2236   17.9785   61.5235 H         1             0.4364
      3 H2         23.8481   19.5526   61.2133 H         1             0.4408
      4 H3         23.2634   18.3590   60.2396 H         1             0.4413
      5 C1         22.3171   18.4887   62.0429 C.3       1             0.0010
      6 C2         21.7986   17.0497   62.0044 C.3       1             0.0453
      7 C3         22.8101   16.0846   62.6669 C.3       1            -0.0954
      8 C4         21.8918   15.0907   63.3520 C.ar      1            -0.1420
      9 C5         20.6308   15.6646   63.3939 C.ar      1             0.1047
     10 O1         20.6329   16.9058   62.8335 O.3       1            -0.3021
     11 C6         19.5769   14.9420   63.9754 C.ar      1             0.0366
     12 C7         19.8092   13.6750   64.5026 C.ar      1            -0.1062
     13 C8         21.0761   13.1243   64.4553 C.ar      1             0.0954
     14 F1         21.3000   11.8956   64.9704 F         1            -0.1266
     15 C9         22.1167   13.8361   63.8784 C.ar      1            -0.1032
     16 C10        18.2173   15.5284   64.0283 C.2       1            -0.2124
     17 C11        17.2468   15.2885   65.0089 C.2       1             0.2806
     18 N2         17.2394   14.5257   66.1064 N.2       1            -0.4647
     19 C12        16.1805   14.4707   66.8809 C.2       1             0.1850
     20 C13        15.0355   15.2155   66.5651 C.2       1            -0.2248
     21 C14        15.0315   15.9927   65.4545 C.2       1             0.1715
     22 N3         16.1465   16.0318   64.6668 N.pl3     1            -0.3111
     23 N4         16.4434   16.7207   63.4858 N.2       1            -0.3017
     24 C15        17.6662   16.4294   63.1116 C.2       1             0.1161
     25 H4         22.5794   18.7531   63.0673 H         1             0.1554
     26 H5         21.5421   19.1640   61.6804 H         1             0.1446
     27 H6         21.5840   16.7453   60.9800 H         1             0.1151
     28 H7         23.4272   15.5914   61.9159 H         1             0.1103
     29 H8         23.4294   16.6088   63.3948 H         1             0.1053
     30 H9         18.9974   13.1207   64.9501 H         1             0.1506
     31 H10        23.1067   13.4063   63.8409 H         1             0.1452
     32 H11        16.1914   13.8491   67.7641 H         1             0.1834
     33 H12        14.1637   15.1704   67.2013 H         1             0.1734
     34 H13        14.1581   16.5730   65.1957 H         1             0.1851
     35 H14        18.1651   16.8191   62.2366 H         1             0.2034
@<TRIPOS>BOND
     1    1    2 1 
     2    1    3 1 
     3    1    4 1 
     4    1    5 1 
     5    5    6 1 
     6    5   25 1 
     7    5   26 1 
     8    6   10 1 
     9    6    7 1 
    10    6   27 1 
    11    7    8 1 
    12    7   28 1 
    13    7   29 1 
    14    8   15 ar
    15    8    9 ar
    16    9   10 1 
    17    9   11 ar
    18   11   12 ar
    19   11   16 1 
    20   12   13 ar
    21   12   30 1 
    22   13   14 1 
    23   13   15 ar
    24   15   31 1 
    25   16   24 1 
    26   16   17 2 
    27   17   22 1 
    28   17   18 1 
    29   18   19 2 
    30   19   20 1 
    31   19   32 1 
    32   20   21 2 
    33   20   33 1 
    34   21   22 1 
    35   21   34 1 
    36   22   23 1 
    37   23   24 2 
    38   24   35 1 
##########                 Name:            E44515869
##########          Protonation:                  100
##########               SMILES:   c1ccc(cc1)n2cncc2C(=O)N3CCc4c3cccc4
##########            Long Name:   indolin-1-yl-(3-phenylimidazol-4-yl)methanone
##########          FlexRecCode: 1
##########               Number:                  286
##########   Ligand Source File: /raidb/db2/rgc/leads-emolecules-300/leads-emolecules-2d-0000044.db2.gz
##########           GlobalRank: 294
##########                 Rank:                    1
##########               Setnum:                   35
##########             Matchnum:                  302
##########                Cloud:                    1
##########        Electrostatic:           -11.688649
##########        Van der Waals:           -34.431332
##########  Ligand Polar Desolv:             5.909263
########## Ligand Apolar Desolv:            -5.274276
##########      Internal Energy:             0.000000
##########      Receptor Energy: 0.0
########## Receptor Desolvation:             0.000000
########## Receptor Hydrophobic:             0.000000
##########         Total Energy: -45.48
##########        Ligand Charge:             0.000000
##########            Arbitrary:    +999.9990
##########     heavy atom count:   22
##########           pose count:    1
##########        Ligand Energy:             0.000000
# num electro vdwattr vdwrepu polsolv apolsol rdesolv rhydroe totalscore fullpol fullapo
#   1   -9.07   -2.48    1.05    3.41    0.24    0.00    0.00      -6.86    5.98    0.42
#   2    7.71   -1.90    0.31   -2.62   -0.35    0.00    0.00       3.16   -4.45   -0.59
#   3   -6.14   -2.16    0.40    1.64    1.06    0.00    0.00      -5.20    2.57    1.67
#   4    0.61   -2.06    0.50   -0.10   -0.34    0.00    0.00      -1.40   -0.16   -0.53
#   5   -0.12   -2.80    0.97   -0.08   -0.20    0.00    0.00      -2.22   -0.11   -0.30
#   6   -1.04   -2.95    0.96    0.06   -0.28    0.00    0.00      -3.24    0.10   -0.44
#   7    1.70   -2.69    1.22   -0.22   -0.44    0.00    0.00      -0.43   -0.34   -0.69
#   8   -2.13   -3.18    1.64    0.36   -0.21    0.00    0.00      -3.52    0.60   -0.36
#   9   -0.88   -2.94    1.26    0.07   -0.29    0.00    0.00      -2.77    0.12   -0.47
#  10   -1.38   -2.20    0.59   -0.07   -0.31    0.00    0.00      -3.36   -0.11   -0.47
#  11   -0.65   -2.81    0.84   -0.05   -0.31    0.00    0.00      -2.98   -0.08   -0.47
#  12   -0.72   -1.67    0.23    0.46   -0.33    0.00    0.00      -2.03    0.80   -0.57
#  13    0.25   -2.55    1.01   -0.22   -0.41    0.00    0.00      -1.91   -0.35   -0.66
#  14   -2.00   -2.50    0.58    1.42    1.58    0.00    0.00      -0.91    2.25    2.51
#  15    0.65   -1.85    0.46   -0.30   -1.79    0.00    0.00      -2.83   -0.52   -3.15
#  16   -1.91   -1.57    0.29    0.88    0.44    0.00    0.00      -1.87    1.66    0.84
#  17    0.43   -1.65    0.42   -0.13   -0.26    0.00    0.00      -1.20   -0.29   -0.59
#  18   -0.10   -1.87    0.53    0.23   -0.20    0.00    0.00      -1.41    0.51   -0.44
#  19    0.50   -1.72    0.30    0.05   -0.21    0.00    0.00      -1.07    0.12   -0.47
#  20    1.08   -1.73    0.49   -0.05   -0.22    0.00    0.00      -0.43   -0.11   -0.47
#  21    0.74   -2.21    1.43   -0.05   -0.23    0.00    0.00      -0.32   -0.10   -0.47
#  22   -0.20   -2.32    1.15    0.06   -0.21    0.00    0.00      -1.51    0.13   -0.45
#  23    0.13   -0.94    0.93   -0.07   -0.16    0.00    0.00      -0.11   -0.12   -0.28
#  24    0.71   -0.82    0.37   -0.09   -0.17    0.00    0.00       0.01   -0.15   -0.28
#  25   -0.80   -1.50    2.02    0.32   -0.18    0.00    0.00      -0.15    0.48   -0.28
#  26    0.35   -1.86    3.78    0.28   -0.18    0.00    0.00       2.37    0.43   -0.28
#  27    1.63   -0.76    0.31   -0.35   -0.07    0.00    0.00       0.76   -0.61   -0.12
#  28    0.93   -0.89    0.55    0.03   -0.15    0.00    0.00       0.48    0.06   -0.28
#  29    1.13   -0.39    0.06    0.27   -0.13    0.00    0.00       0.94    0.57   -0.28
#  30    0.89   -0.95    0.99    0.40   -0.16    0.00    0.00       1.16    0.68   -0.28
#  31    0.15   -0.79    0.44   -0.40   -0.13    0.00    0.00      -0.73   -0.75   -0.24
#  32    0.05   -0.34    0.07    0.28   -0.11    0.00    0.00      -0.05    0.74   -0.28
#  33    0.27   -0.55    0.23   -0.23   -0.11    0.00    0.00      -0.39   -0.57   -0.28
#  34   -0.82   -0.42    0.06    0.07   -0.11    0.00    0.00      -1.22    0.17   -0.28
#  35   -2.27   -0.34    0.06    0.24   -0.09    0.00    0.00      -2.40    0.74   -0.28
#  36   -1.73   -0.42    0.09    0.36   -0.13    0.00    0.00      -1.83    0.77   -0.28
#  37    0.36   -0.68    0.42    0.04   -0.13    0.00    0.00       0.01    0.09   -0.28
@<TRIPOS>MOLECULE
E44515869
   37    40     0     0     0
SMALL
USER_CHARGES


@<TRIPOS>ATOM
      1 O1         18.0320   16.2576   63.3949 O.2       1            -0.5024
      2 C1         18.3033   15.3866   64.2004 C.2       1             0.6071
      3 N1         17.4570   15.1197   65.2149 N.am      1            -0.5445
      4 C2         17.8567   14.6173   66.5321 C.3       1             0.1094
      5 C3         16.5467   14.4768   67.3245 C.3       1            -0.0871
      6 C4         15.4701   14.9257   66.3622 C.ar      1            -0.1318
      7 C5         16.0705   15.2873   65.1662 C.ar      1             0.1369
      8 C6         15.2705   15.7446   64.1174 C.ar      1            -0.1673
      9 C7         13.9039   15.8374   64.2748 C.ar      1            -0.0853
     10 C8         13.3154   15.4785   65.4732 C.ar      1            -0.1372
     11 C9         14.1000   15.0157   66.5136 C.ar      1            -0.0755
     12 C10        19.5482   14.6231   64.0637 C.2       1            -0.0983
     13 C11        19.7622   13.3281   64.4465 C.2       1             0.0632
     14 N2         21.0233   13.0168   64.1467 N.2       1            -0.4885
     15 C12        21.6140   14.0466   63.5959 C.2       1             0.2233
     16 N3         20.7382   15.0677   63.5163 N.pl3     1            -0.3802
     17 C13        20.9869   16.3395   62.9835 C.ar      1             0.1071
     18 C14        21.9851   17.1378   63.5259 C.ar      1            -0.1001
     19 C15        22.2282   18.3908   62.9983 C.ar      1            -0.1017
     20 C16        21.4776   18.8509   61.9315 C.ar      1            -0.1044
     21 C17        20.4834   18.0582   61.3892 C.ar      1            -0.1028
     22 C18        20.2394   16.8018   61.9087 C.ar      1            -0.1036
     23 H1         18.3455   13.6478   66.4346 H         1             0.0869
     24 H2         18.5210   15.3289   67.0225 H         1             0.0863
     25 H3         16.3879   13.4385   67.6154 H         1             0.0952
     26 H4         16.5634   15.1208   68.2038 H         1             0.0939
     27 H5         15.7241   16.0273   63.1790 H         1             0.1514
     28 H6         13.2912   16.1920   63.4592 H         1             0.1300
     29 H7         12.2447   15.5528   65.5942 H         1             0.1287
     30 H8         13.6420   14.7358   67.4506 H         1             0.1275
     31 H9         19.0385   12.6740   64.9100 H         1             0.1847
     32 H10        22.6384   14.0726   63.2553 H         1             0.2191
     33 H11        22.5706   16.7795   64.3596 H         1             0.1225
     34 H12        23.0044   19.0123   63.4196 H         1             0.1341
     35 H13        21.6697   19.8313   61.5210 H         1             0.1334
     36 H14        19.8993   18.4201   60.5560 H         1             0.1367
     37 H15        19.4651   16.1814   61.4819 H         1             0.1332
@<TRIPOS>BOND
     1    1    2 2 
     2    2    3 am
     3    2   12 1 
     4    3    7 1 
     5    3    4 1 
     6    4    5 1 
     7    4   23 1 
     8    4   24 1 
     9    5    6 1 
    10    5   25 1 
    11    5   26 1 
    12    6   11 ar
    13    6    7 ar
    14    7    8 ar
    15    8    9 ar
    16    8   27 1 
    17    9   10 ar
    18    9   28 1 
    19   10   11 ar
    20   10   29 1 
    21   11   30 1 
    22   12   16 1 
    23   12   13 2 
    24   13   14 1 
    25   13   31 1 
    26   14   15 2 
    27   15   16 1 
    28   15   32 1 
    29   16   17 1 
    30   17   22 ar
    31   17   18 ar
    32   18   19 ar
    33   18   33 1 
    34   19   20 ar
    35   19   34 1 
    36   20   21 ar
    37   20   35 1 
    38   21   22 ar
    39   21   36 1 
    40   22   37 1 
##########                 Name:             E3976160
##########          Protonation:                   14
##########               SMILES:   c1cc(oc1)[C@@H]2CC(=CC(=O)C2)NCCc3c[nH]c[nH+]3
##########            Long Name:   (5R)-5-(2-furyl)-3-[2-(1H-imidazol-3-ium-4-yl)ethylamino]cyclohex-2-en-1-one
##########          FlexRecCode: 1
##########               Number:                  469
##########   Ligand Source File: /raidb/db2/rgc/leads-emolecules-300/leads-emolecules-lt300-1f-0000091.db2.gz
##########           GlobalRank: 299
##########                 Rank:                    1
##########               Setnum:                  215
##########             Matchnum:                 4245
##########                Cloud:                    1
##########        Electrostatic:           -23.175449
##########        Van der Waals:           -29.162949
##########  Ligand Polar Desolv:            10.295082
########## Ligand Apolar Desolv:            -3.356549
##########      Internal Energy:             0.000000
##########      Receptor Energy: 0.0
########## Receptor Desolvation:             0.000000
########## Receptor Hydrophobic:             0.000000
##########         Total Energy: -45.4
##########        Ligand Charge:             1.000000
##########            Arbitrary:    +999.9990
##########     heavy atom count:   20
##########           pose count:    1
##########        Ligand Energy:             0.000000
# num electro vdwattr vdwrepu polsolv apolsol rdesolv rhydroe totalscore fullpol fullapo
#   1   -2.39   -4.46    2.37    1.07    0.30    0.00    0.00      -3.12    1.59    0.44
#   2    1.42   -2.27    0.41    0.80   -0.19    0.00    0.00       0.17    1.28   -0.31
#   3   -0.78   -1.71    0.81   -0.55   -0.14    0.00    0.00      -2.38   -0.90   -0.23
#   4    0.13   -1.14    0.16    0.15   -0.10    0.00    0.00      -0.80    0.27   -0.17
#   5   -0.94   -1.14    0.21   -0.70   -0.11    0.00    0.00      -2.67   -1.41   -0.23
#   6    0.81   -1.64    0.52    2.41   -0.33    0.00    0.00       1.76    5.18   -0.71
#   7    0.15   -1.38    0.20   -5.54    0.68    0.00    0.00      -5.90  -13.31    1.63
#   8   -0.47   -0.80    0.08    0.87   -0.15    0.00    0.00      -0.48    2.05   -0.36
#   9    0.69   -0.60    0.03   -0.50   -0.09    0.00    0.00      -0.47   -1.34   -0.25
#  10   -0.48   -1.05    0.08   -0.12   -0.27    0.00    0.00      -1.84   -0.31   -0.69
#  11   -0.85   -1.76    0.38    0.34   -0.45    0.00    0.00      -2.34    0.77   -1.01
#  12   14.33   -3.10    1.93   -6.55    0.51    0.00    0.00       7.13  -15.71    1.22
#  13   -7.20   -1.84    0.57    3.86   -1.17    0.00    0.00      -5.77   10.99   -3.33
#  14    8.55   -1.05    0.12   -4.70    0.36    0.00    0.00       3.28  -14.55    1.11
#  15   -6.53   -0.01    0.00    1.85    0.07    0.00    0.00      -4.62   15.12    0.59
#  16   -0.91   -1.97    0.78   -2.48   -0.24    0.00    0.00      -4.82   -4.38   -0.42
#  17   -0.29   -2.10    0.48   -0.07   -0.16    0.00    0.00      -2.15   -0.12   -0.27
#  18   -2.71   -2.33    0.47   -0.98   -0.33    0.00    0.00      -5.89   -1.49   -0.51
#  19   -3.49   -2.67    0.89   -0.93   -0.32    0.00    0.00      -6.53   -1.50   -0.51
#  20   -0.42   -3.32    1.37   -0.21   -0.16    0.00    0.00      -2.75   -0.35   -0.27
#  21   -2.28   -2.66    0.95   -0.69    0.15    0.00    0.00      -4.54   -1.17    0.25
#  22    0.58   -0.78    0.68    0.25   -0.15    0.00    0.00       0.60    0.49   -0.28
#  23    0.23   -0.94    1.27    0.02   -0.15    0.00    0.00       0.42    0.04   -0.28
#  24    0.89   -0.51    0.25    0.59   -0.11    0.00    0.00       1.11    1.45   -0.28
#  25    0.83   -0.38    0.08    0.64   -0.11    0.00    0.00       1.05    1.57   -0.28
#  26    1.46   -0.65    0.50    0.97   -0.10    0.00    0.00       2.18    2.60   -0.28
#  27   -0.33   -0.02    0.00    2.73    0.16    0.00    0.00       2.53   10.03    0.57
#  28   -0.47   -0.26    0.05    0.46   -0.07    0.00    0.00      -0.30    1.66   -0.27
#  29   -0.14   -0.37    0.09    0.53   -0.10    0.00    0.00       0.00    1.46   -0.27
#  30   -0.77   -0.26    0.04    0.81   -0.07    0.00    0.00      -0.25    3.30   -0.28
#  31   -1.18   -0.16    0.01    0.57   -0.04    0.00    0.00      -0.80    3.57   -0.28
#  32   -3.48   -0.38    0.09    2.28   -0.09    0.00    0.00      -1.58    6.74   -0.28
#  33  -17.74   -0.14    0.04    6.64    0.26    0.00    0.00     -10.93   14.95    0.59
#  34   -4.94   -0.32    0.07    3.28   -0.08    0.00    0.00      -1.98   12.14   -0.28
#  35    0.01   -0.38    0.08    0.52   -0.09    0.00    0.00       0.14    1.25   -0.21
#  36    1.66   -0.54    0.11    0.75   -0.15    0.00    0.00       1.82    1.36   -0.28
#  37    2.49   -0.52    0.15    0.51   -0.13    0.00    0.00       2.50    1.10   -0.28
#  38    1.40   -1.07    1.24    1.39   -0.16    0.00    0.00       2.80    2.45   -0.28
@<TRIPOS>MOLECULE
E3976160
   38    40     0     0     0
SMALL
USER_CHARGES


@<TRIPOS>ATOM
      1 O1         20.9433   11.8643   63.5332 O.2       1            -0.4869
      2 C1         20.6531   13.0444   63.5150 C.2       1             0.4036
      3 C2         19.2130   13.4616   63.6663 C.3       1            -0.1699
      4 C3         19.1589   14.8475   64.3168 C.3       1             0.0143
      5 C4         19.9689   15.8271   63.4628 C.3       1            -0.0997
      6 C5         21.3812   15.3242   63.3262 C.2       1             0.2588
      7 N1         22.3979   16.2183   63.1726 N.pl3     1            -0.7181
      8 C6         22.1524   17.4990   62.5048 C.3       1             0.1158
      9 C7         23.4801   18.0832   62.0184 C.3       1            -0.0757
     10 C8         23.2278   19.4006   61.3316 C.2       1             0.0305
     11 C9         22.0283   19.9907   61.1679 C.2       1             0.0432
     12 N2         22.2519   21.1632   60.4981 N.pl3     1            -0.5088
     13 C10        23.5811   21.2490   60.2756 C.cat     1             0.3123
     14 N3         24.1588   20.1938   60.7812 N.pl3     1            -0.4742
     15 H1         25.1113   20.0109   60.7606 H         1             0.4658
     16 C11        21.6592   14.0030   63.3595 C.2       1            -0.3772
     17 C12        17.7274   15.3119   64.3971 C.2       1            -0.0224
     18 C13        17.0611   15.6158   65.5254 C.2       1            -0.1945
     19 C14        15.7570   16.0019   65.1396 C.2       1            -0.2137
     20 C15        15.7043   15.9111   63.7986 C.2       1            -0.0320
     21 O2         16.9025   15.4982   63.3539 O.3       1            -0.1742
     22 H2         18.7399   13.5008   62.6851 H         1             0.1040
     23 H3         18.6895   12.7425   64.2963 H         1             0.1005
     24 H4         19.5853   14.7976   65.3187 H         1             0.1104
     25 H5         19.5152   15.9090   62.4749 H         1             0.1064
     26 H6         19.9764   16.8062   63.9414 H         1             0.0947
     27 H7         23.2841   16.0068   63.5053 H         1             0.4080
     28 H8         21.4901   17.3436   61.6532 H         1             0.0819
     29 H9         21.6863   18.1909   63.2063 H         1             0.0743
     30 H10        24.1424   18.2386   62.8701 H         1             0.1049
     31 H11        23.9464   17.3913   61.3171 H         1             0.1211
     32 H12        21.0734   19.6114   61.5009 H         1             0.2285
     33 H13        21.5808   21.8116   60.2328 H         1             0.4696
     34 H14        24.0833   22.0587   59.7670 H         1             0.2684
     35 H15        22.6842   13.6783   63.2586 H         1             0.1236
     36 H16        17.4480   15.5724   66.5328 H         1             0.1494
     37 H17        14.9564   16.3104   65.7957 H         1             0.1513
     38 H18        14.8455   16.1360   63.1836 H         1             0.2059
@<TRIPOS>BOND
     1    1    2 2 
     2    2   16 1 
     3    2    3 1 
     4    3    4 1 
     5    3   22 1 
     6    3   23 1 
     7    4    5 1 
     8    4   17 1 
     9    4   24 1 
    10    5    6 1 
    11    5   25 1 
    12    5   26 1 
    13    6    7 1 
    14    6   16 2 
    15    7    8 1 
    16    7   27 1 
    17    8    9 1 
    18    8   28 1 
    19    8   29 1 
    20    9   10 1 
    21    9   30 1 
    22    9   31 1 
    23   10   14 1 
    24   10   11 2 
    25   11   12 1 
    26   11   32 1 
    27   12   13 1 
    28   12   33 1 
    29   13   14 2 
    30   13   34 1 
    31   14   15 1 
    32   16   35 1 
    33   17   21 1 
    34   17   18 2 
    35   18   19 1 
    36   18   36 1 
    37   19   20 2 
    38   19   37 1 
    39   20   21 1 
    40   20   38 1 
##########                 Name:            E46140440
##########          Protonation:                   12
##########               SMILES:   c1ccnc(c1)C[NH+]2C[C@H]3CN(C[C@@H]3C2)Cc4ccncc4
##########            Long Name:   l)-5-(4-pyridylmethyl)-2,3,3a,4,6,6a-hexahydro-1H-pyrrolo[3,4-c]pyrrol-2-ium
##########          FlexRecCode: 1
##########               Number:                  348
##########   Ligand Source File: /raidb/db2/rgc/leads-emolecules-300/leads-emolecules-2g-0000180.db2.gz
##########           GlobalRank: 361
##########                 Rank:                    1
##########               Setnum:                   61
##########             Matchnum:                 3711
##########                Cloud:                    1
##########        Electrostatic:           -25.526930
##########        Van der Waals:           -23.332733
##########  Ligand Polar Desolv:             5.708947
########## Ligand Apolar Desolv:            -1.812606
##########      Internal Energy:             0.000000
##########      Receptor Energy: 0.0
########## Receptor Desolvation:             0.000000
########## Receptor Hydrophobic:             0.000000
##########         Total Energy: -44.96
##########        Ligand Charge:             1.000000
##########            Arbitrary:    +999.9990
##########     heavy atom count:   22
##########           pose count:    1
##########        Ligand Energy:             0.000000
# num electro vdwattr vdwrepu polsolv apolsol rdesolv rhydroe totalscore fullpol fullapo
#   1    0.05   -1.10    0.21    0.69   -0.16    0.00    0.00      -0.32    1.56   -0.37
#   2    2.70   -1.22    0.22   -4.12    1.47    0.00    0.00      -0.95  -10.02    3.57
#   3   -0.50   -0.70    0.12    0.33   -0.13    0.00    0.00      -0.88    1.03   -0.40
#   4    2.13   -0.74    0.09   -1.15   -0.07    0.00    0.00       0.26   -3.35   -0.21
#   5   -0.33   -0.77    0.19    0.40   -0.13    0.00    0.00      -0.64    1.40   -0.46
#   6    9.40   -2.00    3.10   -3.62    0.14    0.00    0.00       7.02  -11.77    0.47
#   7  -18.89   -0.35    0.48    4.57    0.18    0.00    0.00     -14.01   14.04    0.56
#   8   -0.70   -0.55    0.10    0.54   -0.08    0.00    0.00      -0.69    2.27   -0.35
#   9   -0.45   -1.02    0.21    0.47   -0.17    0.00    0.00      -0.95    1.73   -0.62
#  10    1.33   -0.92    0.09   -0.93   -0.11    0.00    0.00      -0.54   -3.18   -0.39
#  11    0.43   -1.05    0.13   -0.60   -0.16    0.00    0.00      -1.25   -1.86   -0.48
#  12    0.62   -1.29    0.25   -1.07   -0.18    0.00    0.00      -1.67   -2.89   -0.48
#  13   -0.45   -1.75    0.70    0.31   -0.37    0.00    0.00      -1.57    0.81   -0.98
#  14    2.26   -1.78    0.80   -2.90    0.62    0.00    0.00      -1.00   -9.09    1.94
#  15   -0.44   -0.98    0.18    0.35   -0.16    0.00    0.00      -1.04    0.96   -0.44
#  16    2.33   -0.68    0.05   -1.43   -0.07    0.00    0.00       0.19   -3.68   -0.18
#  17   -0.64   -0.88    0.10    0.55   -0.23    0.00    0.00      -1.10    1.21   -0.50
#  18   -0.09   -1.66    0.38   -0.17   -0.16    0.00    0.00      -1.71   -0.38   -0.36
#  19   -0.67   -1.63    0.36   -0.79   -0.26    0.00    0.00      -3.00   -1.42   -0.46
#  20    0.39   -2.06    0.35    0.07   -0.60    0.00    0.00      -1.84    0.12   -0.98
#  21   -2.29   -3.52    1.33   -1.26    1.28    0.00    0.00      -4.46   -2.02    2.05
#  22    0.03   -3.24    1.67    0.17   -0.53    0.00    0.00      -1.91    0.31   -0.98
#  23    0.01   -1.96    0.60   -0.80   -0.20    0.00    0.00      -2.36   -1.70   -0.42
#  24   -0.03   -0.42    0.09    0.60   -0.10    0.00    0.00       0.13    1.65   -0.27
#  25    0.46   -0.60    0.45    0.48   -0.10    0.00    0.00       0.68    1.28   -0.27
#  26   -0.44   -0.17    0.01    0.32   -0.04    0.00    0.00      -0.31    2.08   -0.26
#  27   -0.73   -0.40    0.25    0.18   -0.07    0.00    0.00      -0.77    0.69   -0.28
#  28   -2.49   -0.40    0.12    0.89   -0.10    0.00    0.00      -1.99    2.45   -0.28
#  29   -1.34   -0.11    0.00    0.62   -0.03    0.00    0.00      -0.85    5.90   -0.27
#  30   -2.36   -0.39    0.16    1.42   -0.07    0.00    0.00      -1.24    5.34   -0.28
#  31   -1.08   -0.11    0.00    0.80   -0.03    0.00    0.00      -0.43    6.69   -0.28
#  32   -1.14   -0.11    0.01    0.55   -0.03    0.00    0.00      -0.73    4.98   -0.28
#  33   -1.54   -0.23    0.04    1.13   -0.05    0.00    0.00      -0.64    5.66   -0.25
#  34   -1.07   -0.18    0.01    0.51   -0.05    0.00    0.00      -0.79    2.73   -0.28
#  35   -0.67   -0.42    0.36    0.51   -0.08    0.00    0.00      -0.30    1.83   -0.28
#  36   -0.54   -0.80    1.11    0.78   -0.10    0.00    0.00       0.45    2.16   -0.28
#  37   -2.74   -0.38    0.20    1.34   -0.05    0.00    0.00      -1.64    4.81   -0.18
#  38   -3.89   -0.51    0.24    1.46   -0.10    0.00    0.00      -2.80    4.05   -0.28
#  39   -1.00   -0.22    0.02    0.79   -0.06    0.00    0.00      -0.47    3.61   -0.27
#  40   -1.27   -0.27    0.03    0.46   -0.09    0.00    0.00      -1.13    1.45   -0.28
#  41   -0.59   -0.47    0.12    0.59   -0.10    0.00    0.00      -0.44    1.56   -0.26
#  42    1.06   -0.27    0.02    0.50   -0.09    0.00    0.00       1.24    1.59   -0.28
#  43    0.45   -0.44    0.06    0.46   -0.15    0.00    0.00       0.38    0.84   -0.28
#  44   -0.62   -1.16    1.84    0.75   -0.14    0.00    0.00       0.68    1.56   -0.28
#  45   -0.17   -0.33    0.07    0.95   -0.08    0.00    0.00       0.43    3.18   -0.27
@<TRIPOS>MOLECULE
E46140440
   45    48     0     0     0
SMALL
USER_CHARGES


@<TRIPOS>ATOM
      1 C1         22.2628   16.8008   63.5214 C.3       1             0.0855
      2 N1         22.3067   17.2241   62.1153 N.3       1            -0.5104
      3 C2         23.6771   17.0246   61.5360 C.3       1             0.0606
      4 C3         23.7794   18.1646   60.5453 C.3       1            -0.1381
      5 C4         25.0802   18.8317   60.1525 C.3       1             0.0204
      6 N2         24.6380   20.2262   59.8169 N.4       1            -0.3994
      7 H1         24.4571   20.2989   58.8268 H         1             0.4322
      8 C5         25.6797   21.1863   60.2057 C.3       1             0.0605
      9 C6         25.4790   22.4770   59.4541 C.ar      1             0.0539
     10 C7         24.6883   23.4702   60.0010 C.ar      1            -0.1478
     11 C8         24.5101   24.6537   59.3014 C.ar      1            -0.0661
     12 C9         25.1368   24.7948   58.0725 C.ar      1            -0.1351
     13 C10        25.9126   23.7583   57.5893 C.ar      1             0.1124
     14 N3         26.0641   22.6480   58.2849 N.ar      1            -0.4669
     15 C11        23.3813   20.5004   60.5842 C.3       1             0.0198
     16 C12        23.2196   19.3129   61.4773 C.3       1            -0.1564
     17 C13        21.9646   18.6761   61.9810 C.3       1             0.0640
     18 C14        22.1288   15.3014   63.5906 C.ar      1            -0.0439
     19 C15        20.8794   14.7007   63.6123 C.ar      1            -0.1509
     20 C16        20.7956   13.3227   63.6762 C.ar      1             0.1045
     21 N4         21.8858   12.5819   63.7168 N.ar      1            -0.4799
     22 C17        23.0901   13.1188   63.6979 C.ar      1             0.1025
     23 C18        23.2520   14.4895   63.6285 C.ar      1            -0.1710
     24 H2         23.1814   17.1070   64.0219 H         1             0.0542
     25 H3         21.4085   17.2651   64.0141 H         1             0.0970
     26 H4         24.4409   17.1128   62.3086 H         1             0.0654
     27 H5         23.7468   16.0625   61.0285 H         1             0.1022
     28 H6         23.1370   17.9949   59.6812 H         1             0.1213
     29 H7         25.7804   18.8376   60.9879 H         1             0.1364
     30 H8         25.5184   18.3439   59.2818 H         1             0.1444
     31 H9         25.6170   21.3762   61.2772 H         1             0.1403
     32 H10        26.6603   20.7751   59.9663 H         1             0.1466
     33 H11        24.2149   23.3258   60.9609 H         1             0.1425
     34 H12        23.8976   25.4468   59.7039 H         1             0.1501
     35 H13        25.0199   25.7030   57.5000 H         1             0.1518
     36 H14        26.4041   23.8603   56.6330 H         1             0.1724
     37 H15        23.4879   21.4096   61.1760 H         1             0.1348
     38 H16        22.5323   20.5846   59.9059 H         1             0.1352
     39 H17        23.9043   19.4160   62.3192 H         1             0.0939
     40 H18        21.1552   18.8113   61.2636 H         1             0.0966
     41 H19        21.6889   19.0931   62.9497 H         1             0.0827
     42 H20        19.9828   15.3021   63.5800 H         1             0.1370
     43 H21        19.8262   12.8471   63.6935 H         1             0.1596
     44 H22        23.9600   12.4796   63.7328 H         1             0.1571
     45 H23        24.2410   14.9229   63.6082 H         1             0.1283
@<TRIPOS>BOND
     1    1    2 1 
     2    1   18 1 
     3    1   24 1 
     4    1   25 1 
     5    2   17 1 
     6    2    3 1 
     7    3    4 1 
     8    3   26 1 
     9    3   27 1 
    10    4   16 1 
    11    4    5 1 
    12    4   28 1 
    13    5    6 1 
    14    5   29 1 
    15    5   30 1 
    16    6    7 1 
    17    6    8 1 
    18    6   15 1 
    19    8    9 1 
    20    8   31 1 
    21    8   32 1 
    22    9   14 ar
    23    9   10 ar
    24   10   11 ar
    25   10   33 1 
    26   11   12 ar
    27   11   34 1 
    28   12   13 ar
    29   12   35 1 
    30   13   14 ar
    31   13   36 1 
    32   15   16 1 
    33   15   37 1 
    34   15   38 1 
    35   16   17 1 
    36   16   39 1 
    37   17   40 1 
    38   17   41 1 
    39   18   23 ar
    40   18   19 ar
    41   19   20 ar
    42   19   42 1 
    43   20   21 ar
    44   20   43 1 
    45   21   22 ar
    46   22   23 ar
    47   22   44 1 
    48   23   45 1 
##########                 Name:            E24676632
##########          Protonation:                  100
##########               SMILES:   Cc1ccc(cc1)n2c(c(c(n2)CCC[NH3+])C#N)N
##########            Long Name:   3-[5-amino-4-cyano-1-(p-tolyl)pyrazol-3-yl]propylammonium
##########          FlexRecCode: 1
##########               Number:                   41
##########   Ligand Source File: /raidb/db2/rgc/leads-emolecules-300/leads-emolecules-3-au-0000009.db2.gz
##########           GlobalRank: 369
##########                 Rank:                    1
##########               Setnum:                   14
##########             Matchnum:                 3667
##########                Cloud:                    1
##########        Electrostatic:           -26.943913
##########        Van der Waals:           -27.597885
##########  Ligand Polar Desolv:            12.465653
########## Ligand Apolar Desolv:            -2.847608
##########      Internal Energy:             0.000000
##########      Receptor Energy: 0.0
########## Receptor Desolvation:             0.000000
########## Receptor Hydrophobic:             0.000000
##########         Total Energy: -44.92
##########        Ligand Charge:             1.000000
##########            Arbitrary:    +999.9990
##########     heavy atom count:   19
##########           pose count:    1
##########        Ligand Energy:             0.000000
# num electro vdwattr vdwrepu polsolv apolsol rdesolv rhydroe totalscore fullpol fullapo
#   1   -1.43   -1.48    0.37   -0.75   -0.13    0.00    0.00      -3.43   -1.15   -0.20
#   2   -1.05   -2.58    0.88   -0.56   -0.25    0.00    0.00      -3.57   -0.91   -0.41
#   3   -1.24   -2.63    0.75   -0.67   -0.31    0.00    0.00      -4.09   -1.00   -0.46
#   4   -1.24   -2.32    0.42   -0.63   -0.28    0.00    0.00      -4.05   -1.00   -0.45
#   5    1.98   -2.03    0.38    0.55   -0.39    0.00    0.00       0.48    0.93   -0.67
#   6   -2.03   -3.01    1.07   -0.78   -0.23    0.00    0.00      -4.98   -1.34   -0.39
#   7   -1.23   -3.37    1.36   -0.59   -0.28    0.00    0.00      -4.10   -0.98   -0.46
#   8   -3.81   -1.83    0.35   -1.65    0.37    0.00    0.00      -6.57   -3.15    0.71
#   9   -3.27   -2.67    1.98   -1.59    0.54    0.00    0.00      -5.00   -3.41    1.16
#  10    0.36   -1.55    0.32    1.04   -0.31    0.00    0.00      -0.14    2.41   -0.71
#  11    0.17   -0.75    0.07   -0.47   -0.10    0.00    0.00      -1.07   -1.15   -0.25
#  12    1.38   -0.91    0.11   -1.68   -0.10    0.00    0.00      -1.20   -3.73   -0.23
#  13    0.14   -0.76    0.07    0.37   -0.20    0.00    0.00      -0.38    0.92   -0.49
#  14   14.98   -2.05    1.32   -9.47    0.35    0.00    0.00       5.13  -23.12    0.86
#  15  -11.72   -0.04    0.00    6.93    0.23    0.00    0.00      -4.59   17.69    0.58
#  16  -11.33   -0.16    0.06    6.85    0.23    0.00    0.00      -4.34   17.23    0.58
#  17  -10.51   -0.03    0.00    5.86    0.19    0.00    0.00      -4.49   18.60    0.59
#  18   -0.80   -1.66    0.41   -1.48   -0.20    0.00    0.00      -3.74   -3.10   -0.42
#  19    0.16   -1.90    0.50    1.57   -0.71    0.00    0.00      -0.37    3.22   -1.45
#  20    0.83   -2.42    0.85   -1.66    0.34    0.00    0.00      -2.05   -3.41    0.71
#  21    2.68   -1.72    0.34    2.31   -1.20    0.00    0.00       2.42    4.04   -2.09
#  22   -3.66   -2.68    1.54   -5.66    0.53    0.00    0.00      -9.92   -9.22    0.87
#  23    0.83   -0.43    0.06    0.43   -0.15    0.00    0.00       0.74    0.80   -0.28
#  24    0.94   -0.54    0.20    0.39   -0.15    0.00    0.00       0.85    0.75   -0.28
#  25    0.71   -0.62    0.81    0.31   -0.12    0.00    0.00       1.09    0.72   -0.28
#  26    1.26   -0.69    0.36    0.98   -0.16    0.00    0.00       1.74    1.71   -0.28
#  27    1.34   -0.62    0.27    0.76   -0.15    0.00    0.00       1.59    1.42   -0.28
#  28    1.43   -1.10    1.68    0.87   -0.12    0.00    0.00       2.75    1.58   -0.22
#  29    0.99   -1.11    0.98    1.01   -0.16    0.00    0.00       1.72    1.72   -0.28
#  30   -0.39   -0.24    0.02    0.52   -0.08    0.00    0.00      -0.16    1.87   -0.27
#  31   -0.71   -0.27    0.09    0.51   -0.06    0.00    0.00      -0.44    2.43   -0.28
#  32   -1.04   -0.27    0.04    0.80   -0.09    0.00    0.00      -0.56    2.59   -0.28
#  33   -0.63   -0.53    0.18    0.76   -0.11    0.00    0.00      -0.33    1.95   -0.28
#  34   -1.61   -0.23    0.02    0.91   -0.06    0.00    0.00      -0.96    4.39   -0.28
#  35   -2.59   -0.19    0.01    1.10   -0.06    0.00    0.00      -1.74    5.13   -0.28
#  36    1.40   -0.04    0.00    2.43    0.20    0.00    0.00       3.98    5.11    0.41
#  37    1.75   -0.05    0.00    2.82    0.32    0.00    0.00       4.84    5.18    0.58
@<TRIPOS>MOLECULE
E24676632
   37    38     0     0     0
SMALL
USER_CHARGES


@<TRIPOS>ATOM
      1 C1         14.0460   15.7279   65.4074 C.3       1            -0.1228
      2 C2         15.5002   15.7245   65.0117 C.ar      1            -0.0740
      3 C3         16.4766   15.5435   65.9740 C.ar      1            -0.0975
      4 C4         17.8101   15.5395   65.6146 C.ar      1            -0.0978
      5 C5         18.1699   15.7175   64.2854 C.ar      1             0.1327
      6 C6         17.1872   15.8988   63.3215 C.ar      1            -0.1372
      7 C7         15.8551   15.8966   63.6864 C.ar      1            -0.0926
      8 N1         19.5220   15.7144   63.9176 N.pl3     1            -0.3316
      9 N2         20.2064   16.7714   63.3079 N.2       1            -0.2782
     10 C8         21.4468   16.4218   63.1093 C.2       1             0.1470
     11 C9         22.5145   17.2763   62.4760 C.3       1            -0.0381
     12 C10        21.9216   18.6342   62.0946 C.3       1            -0.1483
     13 C11        23.0055   19.5017   61.4517 C.3       1            -0.0088
     14 N3         22.4362   20.8054   61.0856 N.4       1            -0.6379
     15 H1         21.6810   20.6703   60.4302 H         1             0.4359
     16 H2         22.0855   21.2637   61.9132 H         1             0.4359
     17 H3         23.1511   21.3774   60.6614 H         1             0.4395
     18 C12        21.6178   15.1028   63.5903 C.2       1            -0.2605
     19 C13        22.8280   14.3377   63.5661 C.1       1             0.2884
     20 N4         23.7881   13.7307   63.5468 N.1       1            -0.4329
     21 C14        20.3880   14.6913   64.0971 C.2       1             0.4408
     22 N5         20.1049   13.4673   64.6718 N.pl3     1            -0.8302
     23 H4         13.9620   15.5797   66.4839 H         1             0.0784
     24 H5         13.5978   16.6838   65.1361 H         1             0.0731
     25 H6         13.5263   14.9225   64.8881 H         1             0.0731
     26 H7         16.1961   15.4055   67.0079 H         1             0.1374
     27 H8         18.5723   15.3985   66.3667 H         1             0.1359
     28 H9         17.4639   16.0376   62.2867 H         1             0.1306
     29 H10        15.0901   16.0334   62.9365 H         1             0.1389
     30 H11        23.3305   17.4220   63.1838 H         1             0.0979
     31 H12        22.8931   16.7811   61.5818 H         1             0.1017
     32 H13        21.1056   18.4884   61.3868 H         1             0.0957
     33 H14        21.5428   19.1292   62.9888 H         1             0.0921
     34 H15        23.8215   19.6473   62.1596 H         1             0.1366
     35 H16        23.3843   19.0064   60.5576 H         1             0.1384
     36 H17        19.2095   13.2779   64.9932 H         1             0.4137
     37 H18        20.8016   12.7972   64.7540 H         1             0.4249
@<TRIPOS>BOND
     1    1    2 1 
     2    1   23 1 
     3    1   24 1 
     4    1   25 1 
     5    2    7 ar
     6    2    3 ar
     7    3    4 ar
     8    3   26 1 
     9    4    5 ar
    10    4   27 1 
    11    5    6 ar
    12    5    8 1 
    13    6    7 ar
    14    6   28 1 
    15    7   29 1 
    16    8   21 1 
    17    8    9 1 
    18    9   10 2 
    19   10   11 1 
    20   10   18 1 
    21   11   12 1 
    22   11   30 1 
    23   11   31 1 
    24   12   13 1 
    25   12   32 1 
    26   12   33 1 
    27   13   14 1 
    28   13   34 1 
    29   13   35 1 
    30   14   15 1 
    31   14   16 1 
    32   14   17 1 
    33   18   19 1 
    34   18   21 2 
    35   19   20 3 
    36   21   22 1 
    37   22   36 1 
    38   22   37 1 
##########                 Name:             E3983813
##########          Protonation:                   14
##########               SMILES:   c1cc(sc1)[C@@H]2CC(=CC(=O)C2)NCCc3c[nH]c[nH+]3
##########            Long Name:   R)-3-[2-(1H-imidazol-3-ium-4-yl)ethylamino]-5-(2-thienyl)cyclohex-2-en-1-one
##########          FlexRecCode: 1
##########               Number:                  586
##########   Ligand Source File: /raidb/db2/rgc/leads-emolecules-300/leads-emolecules-2c-0000095.db2.gz
##########           GlobalRank: 370
##########                 Rank:                    1
##########               Setnum:                  298
##########             Matchnum:                 4245
##########                Cloud:                    1
##########        Electrostatic:           -22.747665
##########        Van der Waals:           -27.962809
##########  Ligand Polar Desolv:             9.742429
########## Ligand Apolar Desolv:            -3.940674
##########      Internal Energy:             0.000000
##########      Receptor Energy: 0.0
########## Receptor Desolvation:             0.000000
########## Receptor Hydrophobic:             0.000000
##########         Total Energy: -44.91
##########        Ligand Charge:             1.000000
##########            Arbitrary:    +999.9990
##########     heavy atom count:   20
##########           pose count:    1
##########        Ligand Energy:             0.000000
# num electro vdwattr vdwrepu polsolv apolsol rdesolv rhydroe totalscore fullpol fullapo
#   1   -2.40   -4.46    2.37    1.01    0.30    0.00    0.00      -3.18    1.49    0.44
#   2    1.42   -2.27    0.41    0.86   -0.19    0.00    0.00       0.23    1.37   -0.31
#   3   -0.78   -1.71    0.81   -0.58   -0.14    0.00    0.00      -2.40   -0.96   -0.23
#   4    0.14   -1.14    0.16    0.15   -0.10    0.00    0.00      -0.79    0.27   -0.18
#   5   -0.92   -1.14    0.21   -0.72   -0.11    0.00    0.00      -2.68   -1.46   -0.23
#   6    0.81   -1.64    0.52    2.43   -0.33    0.00    0.00       1.78    5.22   -0.71
#   7    0.15   -1.38    0.20   -5.57    0.68    0.00    0.00      -5.92  -13.37    1.63
#   8   -0.47   -0.80    0.08    0.88   -0.15    0.00    0.00      -0.47    2.07   -0.36
#   9    0.69   -0.60    0.03   -0.50   -0.09    0.00    0.00      -0.47   -1.35   -0.25
#  10   -0.49   -1.05    0.08   -0.12   -0.27    0.00    0.00      -1.84   -0.31   -0.69
#  11   -0.85   -1.76    0.38    0.33   -0.45    0.00    0.00      -2.34    0.75   -1.01
#  12   14.33   -3.10    1.93   -6.55    0.51    0.00    0.00       7.13  -15.71    1.22
#  13   -7.20   -1.84    0.57    3.87   -1.17    0.00    0.00      -5.77   11.00   -3.33
#  14    8.55   -1.05    0.12   -4.70    0.36    0.00    0.00       3.28  -14.55    1.11
#  15   -6.53   -0.01    0.00    1.85    0.07    0.00    0.00      -4.62   15.13    0.59
#  16   -0.91   -1.97    0.78   -2.52   -0.24    0.00    0.00      -4.86   -4.45   -0.42
#  17   -1.98   -2.10    0.48   -0.60   -0.16    0.00    0.00      -4.36   -0.98   -0.26
#  18   -2.04   -2.34    0.48   -0.85   -0.31    0.00    0.00      -5.05   -1.29   -0.47
#  19   -2.64   -2.73    0.97   -0.72   -0.29    0.00    0.00      -5.42   -1.15   -0.47
#  20   -2.10   -3.36    1.65   -0.73   -0.16    0.00    0.00      -4.71   -1.21   -0.26
#  21    0.47   -6.85    6.21    0.00   -0.50    0.00    0.00      -0.67    0.00   -0.83
#  22    0.56   -0.78    0.68    0.30   -0.15    0.00    0.00       0.62    0.57   -0.28
#  23    0.23   -0.94    1.27    0.04   -0.15    0.00    0.00       0.44    0.08   -0.28
#  24    0.83   -0.51    0.25    0.56   -0.11    0.00    0.00       1.01    1.36   -0.28
#  25    0.81   -0.38    0.08    0.66   -0.11    0.00    0.00       1.05    1.63   -0.28
#  26    1.47   -0.65    0.50    0.99   -0.10    0.00    0.00       2.20    2.65   -0.28
#  27   -0.33   -0.02    0.00    2.74    0.16    0.00    0.00       2.54   10.05    0.57
#  28   -0.47   -0.26    0.05    0.46   -0.07    0.00    0.00      -0.30    1.65   -0.27
#  29   -0.14   -0.37    0.09    0.53   -0.10    0.00    0.00       0.00    1.46   -0.27
#  30   -0.77   -0.26    0.04    0.81   -0.07    0.00    0.00      -0.25    3.32   -0.28
#  31   -1.18   -0.16    0.01    0.57   -0.04    0.00    0.00      -0.80    3.57   -0.28
#  32   -3.48   -0.38    0.09    2.28   -0.09    0.00    0.00      -1.58    6.73   -0.28
#  33  -17.74   -0.14    0.04    6.64    0.26    0.00    0.00     -10.93   14.94    0.59
#  34   -4.94   -0.32    0.07    3.28   -0.08    0.00    0.00      -1.98   12.14   -0.28
#  35    0.01   -0.38    0.08    0.52   -0.09    0.00    0.00       0.14    1.23   -0.21
#  36    1.51   -0.53    0.10    0.73   -0.15    0.00    0.00       1.66    1.34   -0.28
#  37    2.25   -0.62    0.30    0.49   -0.13    0.00    0.00       2.28    1.02   -0.28
#  38    1.37   -0.88    0.86    0.94   -0.15    0.00    0.00       2.14    1.75   -0.28
@<TRIPOS>MOLECULE
E3983813
   38    40     0     0     0
SMALL
USER_CHARGES


@<TRIPOS>ATOM
      1 O1         20.9433   11.8643   63.5332 O.2       1            -0.4870
      2 C1         20.6531   13.0444   63.5150 C.2       1             0.4036
      3 C2         19.2130   13.4616   63.6663 C.3       1            -0.1679
      4 C3         19.1589   14.8475   64.3168 C.3       1             0.0160
      5 C4         19.9689   15.8271   63.4628 C.3       1            -0.0981
      6 C5         21.3812   15.3242   63.3262 C.2       1             0.2588
      7 N1         22.3979   16.2183   63.1726 N.pl3     1            -0.7181
      8 C6         22.1524   17.4990   62.5048 C.3       1             0.1159
      9 C7         23.4801   18.0832   62.0184 C.3       1            -0.0757
     10 C8         23.2278   19.4006   61.3316 C.2       1             0.0306
     11 C9         22.0283   19.9907   61.1679 C.2       1             0.0431
     12 N2         22.2519   21.1632   60.4981 N.pl3     1            -0.5088
     13 C10        23.5811   21.2490   60.2756 C.cat     1             0.3123
     14 N3         24.1588   20.1938   60.7812 N.pl3     1            -0.4742
     15 H1         25.1113   20.0109   60.7606 H         1             0.4659
     16 C11        21.6592   14.0030   63.3595 C.2       1            -0.3769
     17 C12        17.7274   15.3119   64.3971 C.2       1            -0.1532
     18 C13        16.9947   15.6343   65.4909 C.2       1            -0.1436
     19 C14        15.6842   16.0409   65.3240 C.2       1            -0.1599
     20 C15        15.1706   16.1053   64.0712 C.2       1            -0.1624
     21 S1         16.5592   15.5878   63.0757 S.3       1             0.0376
     22 H2         18.7399   13.5008   62.6851 H         1             0.1010
     23 H3         18.6895   12.7425   64.2963 H         1             0.1008
     24 H4         19.5853   14.7976   65.3187 H         1             0.1031
     25 H5         19.5152   15.9090   62.4749 H         1             0.1034
     26 H6         19.9764   16.8062   63.9414 H         1             0.0951
     27 H7         23.2841   16.0068   63.5053 H         1             0.4080
     28 H8         21.4901   17.3436   61.6532 H         1             0.0817
     29 H9         21.6863   18.1909   63.2063 H         1             0.0743
     30 H10        24.1424   18.2386   62.8701 H         1             0.1050
     31 H11        23.9464   17.3913   61.3171 H         1             0.1210
     32 H12        21.0734   19.6114   61.5009 H         1             0.2284
     33 H13        21.5808   21.8116   60.2328 H         1             0.4696
     34 H14        24.0833   22.0587   59.7670 H         1             0.2684
     35 H15        22.6842   13.6783   63.2586 H         1             0.1233
     36 H16        17.4283   15.5740   66.4783 H         1             0.1339
     37 H17        15.0784   16.3031   66.1788 H         1             0.1370
     38 H18        14.1796   16.3978   63.7567 H         1             0.1882
@<TRIPOS>BOND
     1    1    2 2 
     2    2   16 1 
     3    2    3 1 
     4    3    4 1 
     5    3   22 1 
     6    3   23 1 
     7    4    5 1 
     8    4   17 1 
     9    4   24 1 
    10    5    6 1 
    11    5   25 1 
    12    5   26 1 
    13    6    7 1 
    14    6   16 2 
    15    7    8 1 
    16    7   27 1 
    17    8    9 1 
    18    8   28 1 
    19    8   29 1 
    20    9   10 1 
    21    9   30 1 
    22    9   31 1 
    23   10   14 1 
    24   10   11 2 
    25   11   12 1 
    26   11   32 1 
    27   12   13 1 
    28   12   33 1 
    29   13   14 2 
    30   13   34 1 
    31   14   15 1 
    32   16   35 1 
    33   17   21 1 
    34   17   18 2 
    35   18   19 1 
    36   18   36 1 
    37   19   20 2 
    38   19   37 1 
    39   20   21 1 
    40   20   38 1 
##########                 Name:              E855005
##########          Protonation:                   95
##########               SMILES:   c1cc(oc1)c2cc(nc(n2)N3CC[NH2+]CC3)C(F)F
##########            Long Name:   4-(difluoromethyl)-6-(2-furyl)-2-piperazin-4-ium-1-yl-pyrimidine
##########          FlexRecCode: 1
##########               Number:                  356
##########   Ligand Source File: /raidb/db2/rgc/leads-emolecules-300/leads-lt300-emolecules-1j-0000066.db2.gz
##########           GlobalRank: 385
##########                 Rank:                    1
##########               Setnum:                   77
##########             Matchnum:                  764
##########                Cloud:                    1
##########        Electrostatic:           -24.781437
##########        Van der Waals:           -26.079390
##########  Ligand Polar Desolv:             9.818899
########## Ligand Apolar Desolv:            -3.798784
##########      Internal Energy:             0.000000
##########      Receptor Energy: 0.0
########## Receptor Desolvation:             0.000000
########## Receptor Hydrophobic:             0.000000
##########         Total Energy: -44.84
##########        Ligand Charge:             1.000000
##########            Arbitrary:    +999.9990
##########     heavy atom count:   20
##########           pose count:    1
##########        Ligand Energy:             0.000000
# num electro vdwattr vdwrepu polsolv apolsol rdesolv rhydroe totalscore fullpol fullapo
#   1    0.32   -1.31    0.38   -0.73   -0.23    0.00    0.00      -1.57   -1.47   -0.47
#   2    0.36   -1.75    0.56    1.52   -0.06    0.00    0.00       0.62    2.73   -0.11
#   3   -1.07   -2.32    1.10   -0.82   -0.28    0.00    0.00      -3.39   -1.31   -0.45
#   4    0.36   -1.87    0.92    0.61   -0.38    0.00    0.00      -0.36    1.16   -0.72
#   5   -0.08   -1.60    0.64   -2.32    0.69    0.00    0.00      -2.68   -5.55    1.65
#   6    0.97   -1.54    0.32    2.94   -2.03    0.00    0.00       0.66    6.78   -4.68
#   7   -6.46   -2.61    1.93   -2.55    0.78    0.00    0.00      -8.91   -5.44    1.67
#   8    3.26   -1.71    0.28    1.00   -0.38    0.00    0.00       2.44    1.92   -0.74
#   9   -1.17   -1.63    0.27   -1.14   -0.25    0.00    0.00      -3.92   -1.93   -0.43
#  10   -0.28   -2.05    0.40   -0.25   -0.19    0.00    0.00      -2.38   -0.43   -0.32
#  11   -1.37   -2.15    0.44   -0.65   -0.32    0.00    0.00      -4.04   -1.03   -0.50
#  12   -2.89   -2.74    1.36   -1.37   -0.32    0.00    0.00      -5.96   -2.20   -0.51
#  13    0.16   -3.32    1.39   -0.07   -0.16    0.00    0.00      -2.01   -0.12   -0.27
#  14   -2.23   -2.82    1.07   -0.69    0.16    0.00    0.00      -4.52   -1.17    0.27
#  15    2.86   -1.33    0.14   -4.96    0.74    0.00    0.00      -2.55  -11.50    1.71
#  16   -0.70   -0.87    0.08    0.70   -0.19    0.00    0.00      -0.97    1.79   -0.48
#  17    0.26   -0.54    0.02    0.19   -0.15    0.00    0.00      -0.22    0.58   -0.48
#  18    9.30   -0.95    0.10   -6.30    0.34    0.00    0.00       2.49  -16.73    0.89
#  19   -7.55   -0.03    0.00    4.46    0.14    0.00    0.00      -2.98   17.83    0.56
#  20   -9.99   -0.02    0.00    4.43    0.13    0.00    0.00      -5.45   19.00    0.57
#  21    0.44   -0.96    0.11    0.27   -0.22    0.00    0.00      -0.37    0.58   -0.48
#  22   -1.13   -1.35    0.60    0.84   -0.23    0.00    0.00      -1.26    1.77   -0.48
#  23   -0.16   -0.92    0.79    1.35   -0.15    0.00    0.00       0.92    2.59   -0.28
#  24    0.70   -0.35    0.04    0.40   -0.13    0.00    0.00       0.65    0.80   -0.27
#  25    1.28   -0.42    0.05    1.09   -0.14    0.00    0.00       1.85    2.10   -0.28
#  26    1.66   -0.48    0.16    0.93   -0.12    0.00    0.00       2.14    2.12   -0.28
#  27    1.93   -0.85    0.52    1.81   -0.16    0.00    0.00       3.25    3.23   -0.28
#  28   -0.53   -0.51    0.12    1.40   -0.11    0.00    0.00       0.38    3.51   -0.28
#  29   -0.66   -0.27    0.03    0.38   -0.06    0.00    0.00      -0.57    1.51   -0.24
#  30   -1.46   -0.14    0.01    0.94   -0.04    0.00    0.00      -0.69    7.16   -0.28
#  31   -1.74   -0.16    0.01    0.60   -0.05    0.00    0.00      -1.34    3.42   -0.28
#  32   -3.93   -0.48    0.19    2.67   -0.11    0.00    0.00      -1.66    6.94   -0.28
#  33   -2.92   -0.32    0.04    1.20   -0.10    0.00    0.00      -2.10    3.32   -0.28
#  34   -1.23   -0.61    0.90    0.46   -0.09    0.00    0.00      -0.57    1.25   -0.24
#  35   -1.10   -0.90    0.87    1.50   -0.12    0.00    0.00       0.24    3.47   -0.28
@<TRIPOS>MOLECULE
E855005
   35    37     0     0     0
SMALL
USER_CHARGES


@<TRIPOS>ATOM
      1 F1         23.8126   13.6019   63.6561 F         1            -0.1810
      2 C1         22.4990   13.2458   63.3322 C.3       1             0.3283
      3 F2         22.0042   12.3619   64.2971 F         1            -0.1815
      4 C2         21.6380   14.4820   63.2947 C.ar      1             0.1564
      5 N1         22.1608   15.6515   62.9573 N.ar      1            -0.5436
      6 C3         21.4165   16.7473   62.9193 C.ar      1             0.5787
      7 N2         20.1267   16.7230   63.2146 N.ar      1            -0.5467
      8 C4         19.5323   15.5812   63.5631 C.ar      1             0.3184
      9 C5         20.2943   14.4062   63.6064 C.ar      1            -0.2253
     10 C6         18.0944   15.5548   63.8927 C.2       1            -0.0205
     11 C7         17.5545   15.1763   65.0833 C.2       1            -0.1167
     12 C8         16.1588   15.3057   64.9548 C.2       1            -0.2261
     13 C9         15.9165   15.7524   63.7055 C.2       1             0.0121
     14 O1         17.0876   15.9071   63.0693 O.3       1            -0.1618
     15 N3         22.0036   17.9488   62.5617 N.pl3     1            -0.6032
     16 C10        23.4234   18.2108   62.8449 C.3       1             0.1044
     17 C11        24.0925   18.7029   61.5573 C.3       1            -0.0219
     18 N4         23.3550   19.8603   61.0351 N.4       1            -0.5056
     19 H1         23.3000   20.5721   61.7481 H         1             0.4294
     20 H2         23.8377   20.2296   60.2296 H         1             0.4350
     21 C12        21.9987   19.4547   60.6451 C.3       1            -0.0216
     22 C13        21.2273   18.9975   61.8824 C.3       1             0.1034
     23 H3         22.4839   12.7627   62.3552 H         1             0.1428
     24 H4         19.8425   13.4643   63.8807 H         1             0.1665
     25 H5         18.0928   14.8409   65.9575 H         1             0.1584
     26 H6         15.4213   15.0882   65.7132 H         1             0.1614
     27 H7         14.9415   15.9556   63.2878 H         1             0.2179
     28 H8         23.5077   18.9755   63.6170 H         1             0.0961
     29 H9         23.9054   17.2926   63.1803 H         1             0.1401
     30 H10        25.1212   18.9935   61.7706 H         1             0.1488
     31 H11        24.0867   17.9037   60.8162 H         1             0.1347
     32 H12        21.4847   20.2991   60.1862 H         1             0.1497
     33 H13        22.0563   18.6326   59.9317 H         1             0.1348
     34 H14        20.2582   18.5992   61.5818 H         1             0.1425
     35 H15        21.0862   19.8430   62.5557 H         1             0.0957
@<TRIPOS>BOND
     1    1    2 1 
     2    2    3 1 
     3    2    4 1 
     4    2   23 1 
     5    4    9 ar
     6    4    5 ar
     7    5    6 ar
     8    6    7 ar
     9    6   15 1 
    10    7    8 ar
    11    8    9 ar
    12    8   10 1 
    13    9   24 1 
    14   10   14 1 
    15   10   11 2 
    16   11   12 1 
    17   11   25 1 
    18   12   13 2 
    19   12   26 1 
    20   13   14 1 
    21   13   27 1 
    22   15   22 1 
    23   15   16 1 
    24   16   17 1 
    25   16   28 1 
    26   16   29 1 
    27   17   18 1 
    28   17   30 1 
    29   17   31 1 
    30   18   19 1 
    31   18   20 1 
    32   18   21 1 
    33   21   22 1 
    34   21   32 1 
    35   21   33 1 
    36   22   34 1 
    37   22   35 1 
##########                 Name:            E32408425
##########          Protonation:                   20
##########               SMILES:   c1cc(ccc1c2cnnc(n2)NCCCn3cc[nH+]c3)F
##########            Long Name:   5-(4-fluorophenyl)-N-(3-imidazol-3-ium-1-ylpropyl)-1,2,4-triazin-3-amine
##########          FlexRecCode: 1
##########               Number:                   18
##########   Ligand Source File: /raidb/db2/rgc/leads-emolecules-300/leads-emolecules-3-bo-0000019.db2.gz
##########           GlobalRank: 395
##########                 Rank:                    1
##########               Setnum:                  261
##########             Matchnum:                 2522
##########                Cloud:                    1
##########        Electrostatic:           -21.756403
##########        Van der Waals:           -29.528709
##########  Ligand Polar Desolv:            11.119774
########## Ligand Apolar Desolv:            -4.645828
##########      Internal Energy:             0.000000
##########      Receptor Energy: 0.0
########## Receptor Desolvation:             0.000000
########## Receptor Hydrophobic:             0.000000
##########         Total Energy: -44.81
##########        Ligand Charge:             1.000000
##########            Arbitrary:    +999.9990
##########     heavy atom count:   22
##########           pose count:    1
##########        Ligand Energy:             0.000000
# num electro vdwattr vdwrepu polsolv apolsol rdesolv rhydroe totalscore fullpol fullapo
#   1   -1.42   -1.12    0.13   -0.35   -0.32    0.00    0.00      -3.09   -0.53   -0.48
#   2    1.60   -2.45    0.75    0.25   -0.22    0.00    0.00      -0.07    0.39   -0.34
#   3   -2.25   -2.83    0.97   -0.76   -0.28    0.00    0.00      -5.15   -1.27   -0.47
#   4   -0.75   -2.70    0.80   -0.22   -0.26    0.00    0.00      -3.12   -0.37   -0.44
#   5   -1.00   -2.39    0.89   -0.46   -0.26    0.00    0.00      -3.21   -0.74   -0.41
#   6   -0.20   -3.05    1.16   -0.19   -0.30    0.00    0.00      -2.57   -0.30   -0.46
#   7   -1.06   -3.10    0.96   -0.75   -0.30    0.00    0.00      -4.26   -1.16   -0.47
#   8    2.27   -1.88    0.36    1.00   -0.43    0.00    0.00       1.32    1.70   -0.74
#   9   -0.23   -2.65    1.22   -0.29   -0.56    0.00    0.00      -2.52   -0.48   -0.93
#  10   -0.52   -2.08    0.29   -0.63    0.74    0.00    0.00      -2.20   -1.00    1.18
#  11   -1.11   -1.77    0.48   -1.22    0.64    0.00    0.00      -2.98   -2.13    1.12
#  12    2.75   -1.65    0.36    1.79   -2.32    0.00    0.00       0.93    3.73   -4.83
#  13   -1.42   -1.55    0.26   -3.82    0.76    0.00    0.00      -5.77   -8.75    1.74
#  14   -0.34   -0.84    0.14    0.81   -0.16    0.00    0.00      -0.39    2.08   -0.42
#  15    0.71   -1.19    0.33   -1.12   -0.09    0.00    0.00      -1.36   -2.94   -0.24
#  16   -0.77   -0.89    0.09    1.13   -0.18    0.00    0.00      -0.61    2.97   -0.46
#  17    5.48   -0.86    0.04   -4.28    0.42    0.00    0.00       0.80  -11.79    1.17
#  18   -0.52   -1.35    0.15   -0.17   -0.42    0.00    0.00      -2.31   -0.40   -0.98
#  19   -0.13   -3.70    3.12   -0.20   -0.46    0.00    0.00      -1.38   -0.45   -1.02
#  20   10.82   -3.53    3.38   -5.62    0.47    0.00    0.00       5.51  -13.83    1.15
#  21  -10.98   -0.12    0.03    6.19    0.25    0.00    0.00      -4.63   14.77    0.59
#  22   -3.99   -1.04    0.13    2.97   -1.02    0.00    0.00      -2.95    9.33   -3.21
#  23   -5.84   -1.92    0.44   -1.97    0.98    0.00    0.00      -8.31   -3.77    1.87
#  24    1.39   -0.92    1.07    0.87   -0.15    0.00    0.00       2.26    1.60   -0.28
#  25    2.05   -0.63    0.19    1.40   -0.12    0.00    0.00       2.90    2.58   -0.22
#  26    0.11   -0.75    0.31    0.84   -0.16    0.00    0.00       0.34    1.40   -0.27
#  27    0.20   -0.80    0.24    0.79   -0.17    0.00    0.00       0.26    1.30   -0.28
#  28    0.29   -1.19    2.36    1.48   -0.12    0.00    0.00       2.82    2.62   -0.21
#  29    1.17   -0.03    0.00    2.20    0.20    0.00    0.00       3.53    6.52    0.58
#  30   -0.10   -0.26    0.03    0.34   -0.08    0.00    0.00      -0.06    1.24   -0.28
#  31   -0.42   -0.36    0.26    0.22   -0.07    0.00    0.00      -0.37    0.94   -0.28
#  32   -0.15   -0.93    0.82    0.82   -0.12    0.00    0.00       0.43    1.95   -0.28
#  33   -0.56   -0.31    0.11    0.55   -0.06    0.00    0.00      -0.27    2.69   -0.28
#  34   -0.85   -0.32    0.03    1.61   -0.10    0.00    0.00       0.36    4.46   -0.28
#  35   -0.99   -0.40    0.10    0.95   -0.08    0.00    0.00      -0.43    3.25   -0.28
#  36   -4.38   -0.26    0.02    1.93   -0.09    0.00    0.00      -2.78    5.94   -0.28
#  37   -8.26   -1.52    1.93    3.58   -0.16    0.00    0.00      -4.43    6.42   -0.28
#  38   -2.37   -0.12    0.00    1.46   -0.04    0.00    0.00      -1.07   11.06   -0.28
@<TRIPOS>MOLECULE
E32408425
   38    40     0     0     0
SMALL
USER_CHARGES


@<TRIPOS>ATOM
      1 F1         13.6025   15.7909   66.1870 F         1            -0.1285
      2 C1         14.8516   15.5337   65.7410 C.ar      1             0.1338
      3 C2         15.2535   16.0061   64.5023 C.ar      1            -0.1568
      4 C3         16.5279   15.7462   64.0429 C.ar      1            -0.0496
      5 C4         17.4122   15.0069   64.8274 C.ar      1            -0.0891
      6 C5         17.0036   14.5338   66.0736 C.ar      1            -0.0338
      7 C6         15.7290   14.8028   66.5270 C.ar      1            -0.1624
      8 C7         18.7828   14.7245   64.3377 C.ar      1             0.2531
      9 C8         19.2198   13.4077   64.1579 C.ar      1            -0.0543
     10 N1         20.4461   13.1916   63.7200 N.ar      1            -0.1420
     11 N2         21.2321   14.1769   63.4608 N.ar      1            -0.3377
     12 C9         20.8436   15.4356   63.6224 C.ar      1             0.5075
     13 N3         21.7223   16.4650   63.3313 N.pl3     1            -0.6950
     14 C10        23.0716   16.1616   62.8482 C.3       1             0.1381
     15 C11        24.0331   17.2649   63.2945 C.3       1            -0.1555
     16 C12        23.5742   18.6055   62.7173 C.3       1             0.0965
     17 N4         23.5636   18.5294   61.2543 N.pl3     1            -0.4088
     18 C13        22.5752   18.9855   60.4245 C.2       1             0.0259
     19 C14        22.9687   18.7160   59.1650 C.2       1             0.0044
     20 N5         24.1647   18.1119   59.2244 N.pl3     1            -0.4759
     21 H1         24.6790   17.8084   58.4599 H         1             0.4659
     22 C15        24.5295   18.0012   60.4723 C.cat     1             0.2892
     23 N6         19.6224   15.7195   64.0543 N.ar      1            -0.5212
     24 H2         14.5679   16.5786   63.8954 H         1             0.1489
     25 H3         16.8400   16.1143   63.0767 H         1             0.1448
     26 H4         17.6852   13.9605   66.6845 H         1             0.1453
     27 H5         15.4130   14.4401   67.4939 H         1             0.1453
     28 H6         18.5625   12.5787   64.3750 H         1             0.1889
     29 H7         21.4445   17.3871   63.4471 H         1             0.4164
     30 H8         23.3987   15.2066   63.2595 H         1             0.0809
     31 H9         23.0638   16.1048   61.7598 H         1             0.0811
     32 H10        24.0410   17.3216   64.3831 H         1             0.0899
     33 H11        25.0372   17.0393   62.9352 H         1             0.0878
     34 H12        22.5702   18.8311   63.0767 H         1             0.1282
     35 H13        24.2592   19.3915   63.0353 H         1             0.1309
     36 H14        21.6562   19.4684   60.7225 H         1             0.2235
     37 H15        22.4178   18.9461   58.2650 H         1             0.2243
     38 H16        25.4504   17.5582   60.8222 H         1             0.2604
@<TRIPOS>BOND
     1    1    2 1 
     2    2    7 ar
     3    2    3 ar
     4    3    4 ar
     5    3   24 1 
     6    4    5 ar
     7    4   25 1 
     8    5    6 ar
     9    5    8 1 
    10    6    7 ar
    11    6   26 1 
    12    7   27 1 
    13    8   23 ar
    14    8    9 ar
    15    9   10 ar
    16    9   28 1 
    17   10   11 ar
    18   11   12 ar
    19   12   13 1 
    20   12   23 ar
    21   13   14 1 
    22   13   29 1 
    23   14   15 1 
    24   14   30 1 
    25   14   31 1 
    26   15   16 1 
    27   15   32 1 
    28   15   33 1 
    29   16   17 1 
    30   16   34 1 
    31   16   35 1 
    32   17   22 1 
    33   17   18 1 
    34   18   19 2 
    35   18   36 1 
    36   19   20 1 
    37   19   37 1 
    38   20   21 1 
    39   20   22 2 
    40   22   38 1 
##########                 Name:            E43375589
##########          Protonation:                   98
##########               SMILES:   CCSc1nc(cnc1)N(C[C@H]2CC[NH+](CC2)C)C
##########            Long Name:   hylsulfanyl-N-methyl-N-[(1-methylpiperidin-1-ium-4-yl)methyl]pyrazin-2-amine
##########          FlexRecCode: 1
##########               Number:                  740
##########   Ligand Source File: /raidb/db2/rgc/leads-emolecules-300/leads-lt300-emolecules-1j-0000188.db2.gz
##########           GlobalRank: 402
##########                 Rank:                    1
##########               Setnum:                  127
##########             Matchnum:                 1900
##########                Cloud:                    1
##########        Electrostatic:           -28.051369
##########        Van der Waals:           -24.123856
##########  Ligand Polar Desolv:            10.357450
########## Ligand Apolar Desolv:            -2.960290
##########      Internal Energy:             0.000000
##########      Receptor Energy: 0.0
########## Receptor Desolvation:             0.000000
########## Receptor Hydrophobic:             0.000000
##########         Total Energy: -44.78
##########        Ligand Charge:             1.000000
##########            Arbitrary:    +999.9990
##########     heavy atom count:   19
##########           pose count:    1
##########        Ligand Energy:             0.000000
# num electro vdwattr vdwrepu polsolv apolsol rdesolv rhydroe totalscore fullpol fullapo
#   1   -2.00   -1.62    0.42   -1.38   -0.12    0.00    0.00      -4.71   -2.13   -0.19
#   2   -1.09   -1.47    0.32   -0.65   -0.08    0.00    0.00      -2.97   -1.02   -0.12
#   3   -0.54   -3.51    0.96   -0.70   -0.45    0.00    0.00      -4.24   -1.20   -0.78
#   4    0.85   -1.59    0.20    0.58   -0.34    0.00    0.00      -0.29    1.05   -0.61
#   5    0.07   -2.00    0.34   -0.27   -0.59    0.00    0.00      -2.45   -0.44   -0.96
#   6   -1.49   -2.34    0.39   -1.19    1.29    0.00    0.00      -3.33   -1.90    2.06
#   7   -0.03   -2.04    0.49   -0.27   -0.49    0.00    0.00      -2.35   -0.50   -0.90
#   8    0.80   -1.66    0.39    1.85   -0.73    0.00    0.00       0.65    4.00   -1.58
#   9   -3.01   -1.64    0.31   -2.35    0.61    0.00    0.00      -6.08   -5.07    1.32
#  10    0.40   -1.53    0.24   -3.48    0.67    0.00    0.00      -3.70   -8.35    1.61
#  11   -0.18   -1.20    0.36    0.45   -0.21    0.00    0.00      -0.77    1.16   -0.54
#  12   -0.36   -1.02    0.13    0.85   -0.16    0.00    0.00      -0.57    1.96   -0.38
#  13    1.03   -0.65    0.04   -0.88   -0.06    0.00    0.00      -0.53   -2.16   -0.15
#  14    1.42   -0.62    0.06   -0.99   -0.05    0.00    0.00      -0.18   -3.15   -0.16
#  15    0.16   -1.45    0.64    0.17   -0.17    0.00    0.00      -0.64    0.45   -0.43
#  16   10.31   -2.50    3.72   -4.16    0.21    0.00    0.00       7.58  -11.15    0.56
#  17  -19.82   -0.37    0.49    6.99    0.24    0.00    0.00     -12.47   16.60    0.56
#  18    1.03   -0.75    0.23   -0.59   -0.13    0.00    0.00      -0.20   -2.10   -0.45
#  19    0.14   -1.12    0.23    0.13   -0.18    0.00    0.00      -0.80    0.30   -0.42
#  20    2.05   -0.86    0.10   -1.58   -0.09    0.00    0.00      -0.39   -3.72   -0.21
#  21    0.72   -0.46    0.08    0.13   -0.13    0.00    0.00       0.33    0.28   -0.28
#  22    1.53   -0.80    0.74    0.48   -0.13    0.00    0.00       1.83    1.03   -0.28
#  23    0.91   -0.68    0.71    0.97   -0.13    0.00    0.00       1.78    2.15   -0.28
#  24    1.02   -0.45    0.06    0.55   -0.14    0.00    0.00       1.04    1.07   -0.28
#  25    0.43   -0.79    0.68    1.27   -0.11    0.00    0.00       1.49    2.81   -0.24
#  26    0.48   -0.65    0.41    0.39   -0.15    0.00    0.00       0.49    0.72   -0.28
#  27   -0.01   -0.46    0.11    0.76   -0.09    0.00    0.00       0.30    1.72   -0.21
#  28   -0.27   -0.38    0.13    0.13   -0.07    0.00    0.00      -0.46    0.55   -0.28
#  29    0.06   -0.90    1.09    0.86   -0.10    0.00    0.00       1.02    2.31   -0.28
#  30   -0.30   -0.22    0.02    0.27   -0.05    0.00    0.00      -0.29    1.06   -0.21
#  31    0.06   -0.48    0.20    0.68   -0.11    0.00    0.00       0.35    1.71   -0.28
#  32   -0.37   -0.49    0.13    0.39   -0.09    0.00    0.00      -0.43    1.07   -0.25
#  33   -0.72   -0.26    0.06    0.51   -0.07    0.00    0.00      -0.48    2.08   -0.28
#  34   -0.87   -0.13    0.01    0.22   -0.02    0.00    0.00      -0.79    1.88   -0.17
#  35   -0.76   -0.22    0.04    0.04   -0.04    0.00    0.00      -0.94    0.21   -0.21
#  36   -2.16   -0.51    0.26    1.30   -0.09    0.00    0.00      -1.20    3.94   -0.28
#  37   -2.60   -0.88    1.36    1.82   -0.12    0.00    0.00      -0.43    4.16   -0.28
#  38   -2.03   -0.19    0.03    0.69   -0.05    0.00    0.00      -1.54    3.95   -0.28
#  39   -1.49   -0.13    0.00    0.63   -0.04    0.00    0.00      -1.02    4.87   -0.28
#  40   -1.81   -0.21    0.06    0.43   -0.02    0.00    0.00      -1.56    2.82   -0.15
#  41   -3.72   -0.49    0.20    2.04   -0.10    0.00    0.00      -2.08    5.55   -0.28
#  42   -3.22   -0.40    0.09    1.75   -0.11    0.00    0.00      -1.89    4.58   -0.28
#  43   -1.48   -0.45    0.13    0.86   -0.10    0.00    0.00      -1.04    2.49   -0.28
#  44   -1.19   -0.30    0.06    0.65   -0.05    0.00    0.00      -0.84    2.64   -0.22
@<TRIPOS>MOLECULE
E43375589
   44    45     0     0     0
SMALL
USER_CHARGES


@<TRIPOS>ATOM
      1 C1         15.9702   15.5718   65.3865 C.3       1            -0.1462
      2 C2         17.4032   15.0504   65.2603 C.3       1            -0.1008
      3 S1         18.0942   15.5617   63.6631 S.3       1            -0.0398
      4 C3         19.7246   14.8935   63.6703 C.ar      1             0.1145
      5 C4         19.9141   13.5188   63.7848 C.ar      1             0.0166
      6 N1         21.1354   13.0177   63.7908 N.ar      1            -0.3808
      7 C5         22.1817   13.8174   63.6879 C.ar      1            -0.0147
      8 C6         22.0007   15.1920   63.5732 C.ar      1             0.3651
      9 N2         20.7741   15.6998   63.5613 N.ar      1            -0.5124
     10 N3         23.1026   16.0324   63.4655 N.pl3     1            -0.6037
     11 C7         24.4557   15.4708   63.4726 C.3       1             0.0868
     12 C8         22.9109   17.4798   63.3448 C.3       1             0.1315
     13 C9         22.7995   17.8581   61.8666 C.3       1            -0.1171
     14 C10        24.0864   17.4603   61.1378 C.3       1            -0.1366
     15 C11        24.0003   17.9127   59.6785 C.3       1            -0.0086
     16 N4         23.8355   19.3701   59.6232 N.4       1            -0.3805
     17 H1         23.8329   19.6710   58.6602 H         1             0.4284
     18 C12        24.9487   20.0145   60.3329 C.3       1            -0.0594
     19 C13        22.5681   19.7526   60.2572 C.3       1            -0.0057
     20 C14        22.5991   19.3710   61.7388 C.3       1            -0.1425
     21 H2         15.5550   15.2646   66.3464 H         1             0.0721
     22 H3         15.9728   16.6599   65.3233 H         1             0.0678
     23 H4         15.3622   15.1623   64.5799 H         1             0.0770
     24 H5         18.0111   15.4598   66.0671 H         1             0.0914
     25 H6         17.4007   13.9622   65.3236 H         1             0.0781
     26 H7         19.0611   12.8619   63.8691 H         1             0.1725
     27 H8         23.1793   13.4034   63.6932 H         1             0.1684
     28 H9         25.1839   16.2763   63.3795 H         1             0.0636
     29 H10        24.6224   14.9365   64.4078 H         1             0.0774
     30 H11        24.5673   14.7815   62.6356 H         1             0.0777
     31 H12        21.9973   17.7698   63.8640 H         1             0.0861
     32 H13        23.7611   17.9973   63.7892 H         1             0.0900
     33 H14        21.9511   17.3390   61.4203 H         1             0.0904
     34 H15        24.9395   17.9397   61.6178 H         1             0.0937
     35 H16        24.2068   16.3776   61.1768 H         1             0.1021
     36 H17        24.9149   17.6308   59.1567 H         1             0.1289
     37 H18        23.1470   17.4326   59.1995 H         1             0.1278
     38 H19        24.8273   21.0971   60.2925 H         1             0.1235
     39 H20        24.9541   19.6883   61.3729 H         1             0.1254
     40 H21        25.8906   19.7366   59.8599 H         1             0.1254
     41 H22        22.4253   20.8290   60.1627 H         1             0.1324
     42 H23        21.7454   19.2332   59.7659 H         1             0.1292
     43 H24        21.6565   19.6542   62.2073 H         1             0.1135
     44 H25        23.4214   19.8899   62.2312 H         1             0.0913
@<TRIPOS>BOND
     1    1    2 1 
     2    1   21 1 
     3    1   22 1 
     4    1   23 1 
     5    2    3 1 
     6    2   24 1 
     7    2   25 1 
     8    3    4 1 
     9    4    9 ar
    10    4    5 ar
    11    5    6 ar
    12    5   26 1 
    13    6    7 ar
    14    7    8 ar
    15    7   27 1 
    16    8    9 ar
    17    8   10 1 
    18   10   11 1 
    19   10   12 1 
    20   11   28 1 
    21   11   29 1 
    22   11   30 1 
    23   12   13 1 
    24   12   31 1 
    25   12   32 1 
    26   13   20 1 
    27   13   14 1 
    28   13   33 1 
    29   14   15 1 
    30   14   34 1 
    31   14   35 1 
    32   15   16 1 
    33   15   36 1 
    34   15   37 1 
    35   16   17 1 
    36   16   18 1 
    37   16   19 1 
    38   18   38 1 
    39   18   39 1 
    40   18   40 1 
    41   19   20 1 
    42   19   41 1 
    43   19   42 1 
    44   20   43 1 
    45   20   44 1 
##########                 Name:             E1714740
##########          Protonation:                   99
##########               SMILES:   c1ccc(cc1)CNc2cc(ccc2[N+](=O)[O-])NCC[NH3+]
##########            Long Name:   2-[3-(benzylamino)-4-nitro-anilino]ethylammonium
##########          FlexRecCode: 1
##########               Number:                  650
##########   Ligand Source File: /raidb/db2/rgc/leads-emolecules-300/leads-emolecules-2b-0000130.db2.gz
##########           GlobalRank: 443
##########                 Rank:                    1
##########               Setnum:                   16
##########             Matchnum:                 2952
##########                Cloud:                    1
##########        Electrostatic:           -25.762465
##########        Van der Waals:           -30.763533
##########  Ligand Polar Desolv:            14.644178
########## Ligand Apolar Desolv:            -2.732593
##########      Internal Energy:             0.000000
##########      Receptor Energy: 0.0
########## Receptor Desolvation:             0.000000
########## Receptor Hydrophobic:             0.000000
##########         Total Energy: -44.61
##########        Ligand Charge:             1.000000
##########            Arbitrary:    +999.9990
##########     heavy atom count:   21
##########           pose count:    1
##########        Ligand Energy:             0.000000
# num electro vdwattr vdwrepu polsolv apolsol rdesolv rhydroe totalscore fullpol fullapo
#   1   16.45   -1.68    0.70  -10.69    0.35    0.00    0.00       5.13  -26.12    0.86
#   2  -11.89   -0.04    0.00    6.69    0.19    0.00    0.00      -5.04   20.09    0.58
#   3  -14.70   -0.07    0.00    8.09    0.23    0.00    0.00      -6.44   20.75    0.60
#   4   -9.98   -0.02    0.00    6.51    0.19    0.00    0.00      -3.31   20.08    0.58
#   5    0.35   -0.74    0.09    0.25   -0.17    0.00    0.00      -0.24    0.71   -0.50
#   6   -1.02   -0.70    0.05    0.52   -0.13    0.00    0.00      -1.28    1.51   -0.38
#   7    5.99   -1.29    0.10   -7.58    0.70    0.00    0.00      -2.08  -18.44    1.70
#   8   -0.81   -1.27    0.13    2.72   -0.30    0.00    0.00       0.47    6.45   -0.71
#   9    0.62   -1.46    0.24   -1.38   -0.17    0.00    0.00      -2.15   -3.53   -0.44
#  10   -0.01   -1.83    0.51   -0.07   -0.19    0.00    0.00      -1.60   -0.17   -0.44
#  11   -0.32   -1.77    0.44   -0.66   -0.32    0.00    0.00      -2.63   -1.34   -0.66
#  12    1.26   -1.67    0.58    1.08   -0.33    0.00    0.00       0.92    2.27   -0.70
#  13   -4.63   -1.68    0.28   -2.68    0.92    0.00    0.00      -7.79   -4.78    1.64
#  14    2.07   -1.38    0.29    0.94   -0.21    0.00    0.00       1.72    1.71   -0.38
#  15   -1.58   -2.05    0.42   -0.47   -0.23    0.00    0.00      -3.90   -0.77   -0.37
#  16   -1.31   -2.64    1.04   -0.38   -0.27    0.00    0.00      -3.56   -0.64   -0.45
#  17   -1.28   -2.76    1.24   -0.43   -0.30    0.00    0.00      -3.53   -0.66   -0.47
#  18   -0.48   -3.36    1.01   -0.40   -0.31    0.00    0.00      -3.54   -0.60   -0.47
#  19   -0.51   -3.57    1.06   -0.47   -0.31    0.00    0.00      -3.79   -0.71   -0.47
#  20   -0.85   -2.45    0.62   -0.43   -0.27    0.00    0.00      -3.38   -0.70   -0.45
#  21   -0.68   -1.61    0.37   -1.82   -0.19    0.00    0.00      -3.93   -4.19   -0.43
#  22    0.16   -2.56    0.61   -0.01    0.24    0.00    0.00      -1.57   -0.02    0.40
#  23   -0.58   -2.41    0.42    0.32   -0.42    0.00    0.00      -2.67    0.49   -0.65
#  24   -0.64   -4.48    4.80    0.34   -0.33    0.00    0.00      -0.30    0.59   -0.57
#  25   -2.15   -0.15    0.01    0.82   -0.04    0.00    0.00      -1.52    5.60   -0.28
#  26   -2.84   -0.52    0.49    1.58   -0.08    0.00    0.00      -1.37    5.60   -0.28
#  27   -0.90   -0.13    0.00    0.43   -0.03    0.00    0.00      -0.63    3.64   -0.27
#  28   -0.66   -0.40    0.11    1.00   -0.07    0.00    0.00      -0.02    3.65   -0.27
#  29   -3.91   -0.03    0.00    4.04    0.19    0.00    0.00       0.29   11.97    0.57
#  30   -0.67   -0.34    0.09    1.22   -0.06    0.00    0.00       0.25    5.08   -0.23
#  31   -0.10   -0.44    0.16    0.41   -0.10    0.00    0.00      -0.07    1.20   -0.28
#  32    1.99   -0.03    0.00    0.38    0.18    0.00    0.00       2.53    0.83    0.40
#  33    1.86   -0.82    1.52    0.62   -0.11    0.00    0.00       3.08    1.48   -0.26
#  34    0.80   -0.82    0.71    0.65   -0.14    0.00    0.00       1.20    1.30   -0.28
#  35    1.64   -0.56    0.13    0.52   -0.15    0.00    0.00       1.58    0.99   -0.28
#  36    1.39   -0.44    0.13    0.33   -0.12    0.00    0.00       1.29    0.76   -0.28
#  37    0.03   -0.89    0.34    0.44   -0.17    0.00    0.00      -0.26    0.70   -0.28
#  38    0.20   -1.41    1.18    0.55   -0.18    0.00    0.00       0.34    0.84   -0.28
#  39    0.95   -0.62    0.43    0.53   -0.13    0.00    0.00       1.15    1.18   -0.28
#  40    0.97   -0.51    0.47    1.12   -0.08    0.00    0.00       1.97    3.18   -0.23
@<TRIPOS>MOLECULE
E1714740
   40    41     0     0     0
SMALL
USER_CHARGES


@<TRIPOS>ATOM
      1 N1         23.0345   19.7399   59.9447 N.4       1            -0.6320
      2 H1         23.5388   18.9869   59.5012 H         1             0.4393
      3 H2         22.9188   20.4988   59.2899 H         1             0.4455
      4 H3         22.1282   19.4094   60.2403 H         1             0.4393
      5 C1         23.7885   20.2125   61.1135 C.3       1            -0.0198
      6 C2         23.9641   19.0617   62.1065 C.3       1             0.0952
      7 N2         22.6482   18.5819   62.5357 N.pl3     1            -0.7385
      8 C3         22.4760   17.2434   62.8953 C.ar      1             0.2903
      9 C4         23.5754   16.4729   63.2554 C.ar      1            -0.2451
     10 C5         23.4061   15.1488   63.6108 C.ar      1             0.0334
     11 C6         22.1442   14.5858   63.6100 C.ar      1            -0.1620
     12 C7         21.0410   15.3504   63.2510 C.ar      1             0.3219
     13 N3         19.7657   14.7808   63.2505 N.pl3     1            -0.7168
     14 C8         18.5800   15.6391   63.3088 C.3       1             0.1631
     15 C9         17.7791   15.3063   64.5413 C.ar      1            -0.1235
     16 C10        16.4062   15.4667   64.5376 C.ar      1            -0.0944
     17 C11        15.6715   15.1615   65.6680 C.ar      1            -0.1189
     18 C12        16.3099   14.6954   66.8021 C.ar      1            -0.1028
     19 C13        17.6828   14.5342   66.8056 C.ar      1            -0.1205
     20 C14        18.4169   14.8353   65.6737 C.ar      1            -0.0997
     21 C15        21.2067   16.6828   62.8989 C.ar      1            -0.2674
     22 N4         21.9676   13.1668   63.9914 N.pl3     1             0.0441
     23 O1         20.8636   12.6736   63.9905 O.2       1            -0.1513
     24 O2         22.9270   12.5008   64.3039 O.3       1            -0.1792
     25 H4         24.7677   20.5694   60.7942 H         1             0.1420
     26 H5         23.2438   21.0258   61.5927 H         1             0.1420
     27 H6         24.5090   18.2483   61.6273 H         1             0.0872
     28 H7         24.5235   19.4125   62.9738 H         1             0.0875
     29 H8         21.8963   19.1939   62.5701 H         1             0.4114
     30 H9         24.5631   16.9097   63.2571 H         1             0.1354
     31 H10        24.2621   14.5520   63.8895 H         1             0.1493
     32 H11        19.6652   13.8167   63.2114 H         1             0.4166
     33 H12        18.8892   16.6837   63.3475 H         1             0.0759
     34 H13        17.9679   15.4739   62.4222 H         1             0.0788
     35 H14        15.9074   15.8309   63.6515 H         1             0.1247
     36 H15        14.5989   15.2874   65.6654 H         1             0.1284
     37 H16        15.7360   14.4576   67.6856 H         1             0.1279
     38 H17        18.1816   14.1704   67.6918 H         1             0.1274
     39 H18        19.4892   14.7058   65.6752 H         1             0.1221
     40 H19        20.3504   17.2806   62.6241 H         1             0.1432
@<TRIPOS>BOND
     1    1    2 1 
     2    1    3 1 
     3    1    4 1 
     4    1    5 1 
     5    5    6 1 
     6    5   25 1 
     7    5   26 1 
     8    6    7 1 
     9    6   27 1 
    10    6   28 1 
    11    7    8 1 
    12    7   29 1 
    13    8   21 ar
    14    8    9 ar
    15    9   10 ar
    16    9   30 1 
    17   10   11 ar
    18   10   31 1 
    19   11   12 ar
    20   11   22 1 
    21   12   13 1 
    22   12   21 ar
    23   13   14 1 
    24   13   32 1 
    25   14   15 1 
    26   14   33 1 
    27   14   34 1 
    28   15   20 ar
    29   15   16 ar
    30   16   17 ar
    31   16   35 1 
    32   17   18 ar
    33   17   36 1 
    34   18   19 ar
    35   18   37 1 
    36   19   20 ar
    37   19   38 1 
    38   20   39 1 
    39   21   40 1 
    40   22   23 2 
    41   22   24 1 
##########                 Name:             E2476220
##########          Protonation:                   20
##########               SMILES:   c1cn(c[nH+]1)CCCNc2c(c(ncn2)N)[N+](=O)[O-]
##########            Long Name:   N4-(3-imidazol-3-ium-1-ylpropyl)-5-nitro-pyrimidine-4,6-diamine
##########          FlexRecCode: 1
##########               Number:                  385
##########   Ligand Source File: /raidb/db2/rgc/leads-emolecules-300/leads-lt300-emolecules-1c-0000149.db2.gz
##########           GlobalRank: 462
##########                 Rank:                    1
##########               Setnum:                  217
##########             Matchnum:                  236
##########                Cloud:                    1
##########        Electrostatic:           -26.203253
##########        Van der Waals:           -25.706322
##########  Ligand Polar Desolv:            10.062631
########## Ligand Apolar Desolv:            -2.701705
##########      Internal Energy:             0.000000
##########      Receptor Energy: 0.0
########## Receptor Desolvation:             0.000000
########## Receptor Hydrophobic:             0.000000
##########         Total Energy: -44.55
##########        Ligand Charge:             1.000000
##########            Arbitrary:    +999.9990
##########     heavy atom count:   19
##########           pose count:    1
##########        Ligand Energy:             0.000000
# num electro vdwattr vdwrepu polsolv apolsol rdesolv rhydroe totalscore fullpol fullapo
#   1   -0.90   -3.85    2.21   -3.81    0.60    0.00    0.00      -5.75   -5.85    0.92
#   2    1.89   -2.19    0.37    1.81   -1.33    0.00    0.00       0.55    2.89   -2.13
#   3   -3.05   -3.70    1.54   -2.72    1.32    0.00    0.00      -6.62   -4.30    2.08
#   4    0.24   -3.05    1.35    2.17   -1.73    0.00    0.00      -1.03    3.97   -3.17
#   5   -0.23   -1.83    0.41   -2.78    0.93    0.00    0.00      -3.50   -5.79    1.94
#   6    1.40   -1.67    0.40    2.14   -0.96    0.00    0.00       1.31    4.57   -2.05
#   7   -1.63   -1.77    0.41   -4.04    0.76    0.00    0.00      -6.27   -9.06    1.71
#   8   -0.11   -1.58    0.46    0.94   -0.19    0.00    0.00      -0.49    2.08   -0.42
#   9    0.96   -1.20    0.18   -1.35   -0.10    0.00    0.00      -1.51   -3.18   -0.24
#  10   -1.08   -0.60    0.03    1.24   -0.18    0.00    0.00      -0.59    3.14   -0.46
#  11    7.40   -1.07    0.08   -4.59    0.45    0.00    0.00       2.27  -11.86    1.17
#  12   -0.46   -1.09    0.22   -0.12   -0.30    0.00    0.00      -1.76   -0.40   -0.98
#  13   -0.12   -1.88    0.92   -0.16   -0.34    0.00    0.00      -1.58   -0.49   -1.02
#  14   13.91   -3.81    3.72   -5.56    0.46    0.00    0.00       8.74  -13.75    1.15
#  15  -18.34   -0.27    0.15    6.61    0.27    0.00    0.00     -11.59   14.67    0.59
#  16   -7.01   -1.98    0.55    3.98   -1.37    0.00    0.00      -5.84    9.30   -3.21
#  17   -1.39   -1.62    0.29   -1.23   -0.37    0.00    0.00      -4.33   -2.13   -0.64
#  18    0.34   -1.63    0.18    0.19    0.15    0.00    0.00      -0.77    0.34    0.27
#  19   -1.75   -1.83    0.34   -0.42   -0.38    0.00    0.00      -4.04   -0.73   -0.66
#  20   -1.36   -2.08    0.61   -0.41   -0.36    0.00    0.00      -3.59   -0.75   -0.66
#  21    1.60   -0.09    0.01    1.62    0.29    0.00    0.00       3.44    3.05    0.55
#  22   -2.27   -0.12    0.02    2.52    0.39    0.00    0.00       0.54    3.78    0.59
#  23   -0.94   -1.15    2.11    1.89   -0.13    0.00    0.00       1.77    3.95   -0.28
#  24    2.06   -0.03    0.00    1.71    0.17    0.00    0.00       3.91    5.34    0.52
#  25    0.18   -1.14    0.96    0.95   -0.14    0.00    0.00       0.80    1.83   -0.28
#  26   -0.19   -0.39    0.10    0.45   -0.09    0.00    0.00      -0.11    1.48   -0.28
#  27   -0.55   -0.52    0.11    0.70   -0.12    0.00    0.00      -0.38    1.62   -0.28
#  28   -0.54   -0.57    0.21    0.84   -0.10    0.00    0.00      -0.16    2.35   -0.28
#  29   -1.28   -0.14    0.01    0.66   -0.04    0.00    0.00      -0.80    4.82   -0.28
#  30   -1.30   -0.20    0.02    0.72   -0.06    0.00    0.00      -0.82    3.56   -0.28
#  31   -2.80   -0.12    0.01    0.67   -0.03    0.00    0.00      -2.28    5.95   -0.28
#  32   -3.21   -0.27    0.08    1.41   -0.06    0.00    0.00      -2.06    6.34   -0.28
#  33   -5.65   -0.36    0.06    4.05   -0.10    0.00    0.00      -2.02   11.08   -0.28
@<TRIPOS>MOLECULE
E2476220
   33    34     0     0     0
SMALL
USER_CHARGES


@<TRIPOS>ATOM
      1 N1         19.3774   12.4295   63.7378 N.pl3     1            -0.8151
      2 C1         20.5727   13.1292   63.6788 C.ar      1             0.5231
      3 N2         21.7344   12.4794   63.6301 N.ar      1            -0.5857
      4 C2         22.8747   13.1364   63.5734 C.ar      1             0.4168
      5 N3         22.9201   14.4531   63.5623 N.ar      1            -0.5930
      6 C3         21.8026   15.1759   63.6085 C.ar      1             0.5184
      7 N4         21.8598   16.5610   63.5964 N.pl3     1            -0.7088
      8 C4         23.0999   17.2461   63.9693 C.3       1             0.1321
      9 C5         23.1958   18.5737   63.2147 C.3       1            -0.1599
     10 C6         23.1948   18.3053   61.7084 C.3       1             0.0987
     11 N5         23.2866   19.5767   60.9860 N.pl3     1            -0.4098
     12 C7         24.4367   20.2058   60.5923 C.2       1             0.0255
     13 C8         24.0661   21.3373   59.9631 C.2       1             0.0055
     14 N6         22.7262   21.3975   59.9725 N.pl3     1            -0.4754
     15 H1         22.1934   22.1099   59.5860 H         1             0.4662
     16 C9         22.2522   20.3436   60.5790 C.cat     1             0.2896
     17 C10        20.5762   14.5204   63.6638 C.ar      1            -0.2820
     18 N7         19.3087   15.2835   63.7108 N.pl3     1             0.0344
     19 O1         18.8366   15.6063   64.7759 O.2       1            -0.1373
     20 O2         18.7455   15.5840   62.6840 O.3       1            -0.1362
     21 H2         18.5352   12.9098   63.7670 H         1             0.4158
     22 H3         19.3832   11.4595   63.7460 H         1             0.4256
     23 H4         23.7993   12.5796   63.5352 H         1             0.2198
     24 H5         21.0788   17.0765   63.3411 H         1             0.4125
     25 H6         23.1008   17.4373   65.0424 H         1             0.0861
     26 H7         23.9533   16.6190   63.7113 H         1             0.0863
     27 H8         22.3426   19.2008   63.4729 H         1             0.0904
     28 H9         24.1186   19.0833   63.4922 H         1             0.0883
     29 H10        24.0479   17.6783   61.4503 H         1             0.1283
     30 H11        22.2720   17.7959   61.4309 H         1             0.1309
     31 H12        25.4472   19.8612   60.7552 H         1             0.2237
     32 H13        24.7311   22.0682   59.5275 H         1             0.2248
     33 H14        21.2062   20.1228   60.7325 H         1             0.2605
@<TRIPOS>BOND
     1    1    2 1 
     2    1   21 1 
     3    1   22 1 
     4    2   17 ar
     5    2    3 ar
     6    3    4 ar
     7    4    5 ar
     8    4   23 1 
     9    5    6 ar
    10    6    7 1 
    11    6   17 ar
    12    7    8 1 
    13    7   24 1 
    14    8    9 1 
    15    8   25 1 
    16    8   26 1 
    17    9   10 1 
    18    9   27 1 
    19    9   28 1 
    20   10   11 1 
    21   10   29 1 
    22   10   30 1 
    23   11   16 1 
    24   11   12 1 
    25   12   13 2 
    26   12   31 1 
    27   13   14 1 
    28   13   32 1 
    29   14   15 1 
    30   14   16 2 
    31   16   33 1 
    32   17   18 1 
    33   18   19 2 
    34   18   20 1 
##########                 Name:             E2932690
##########          Protonation:                   21
##########               SMILES:   [H]/N=C(/Nc1ccc(cc1)SC(F)F)\NC(=[NH2+])N
##########            Long Name:   [[N-[4-(difluoromethylsulfanyl)phenyl]carbamimidoyl]amino]methylene]ammonium
##########          FlexRecCode: 1
##########               Number:                 1090
##########   Ligand Source File: /raidb/db2/rgc/leads-emolecules-300/leads-lt300-emolecules-1b-0000063.db2.gz
##########           GlobalRank: 480
##########                 Rank:                    1
##########               Setnum:                  281
##########             Matchnum:                 2591
##########                Cloud:                    1
##########        Electrostatic:           -27.055618
##########        Van der Waals:           -21.227488
##########  Ligand Polar Desolv:             6.925953
########## Ligand Apolar Desolv:            -3.139982
##########      Internal Energy:             0.000000
##########      Receptor Energy: 0.0
########## Receptor Desolvation:             0.000000
########## Receptor Hydrophobic:             0.000000
##########         Total Energy: -44.5
##########        Ligand Charge:             1.000000
##########            Arbitrary:    +999.9990
##########     heavy atom count:   17
##########           pose count:    1
##########        Ligand Energy:             0.000000
# num electro vdwattr vdwrepu polsolv apolsol rdesolv rhydroe totalscore fullpol fullapo
#   1   20.74   -2.72    1.97   -8.96    0.27    0.00    0.00      11.29  -24.69    0.74
#   2  -16.48   -1.40    0.27    8.53   -1.82    0.00    0.00     -10.90   23.19   -4.95
#   3   17.34   -1.70    0.45   -9.40    0.36    0.00    0.00       7.04  -24.09    0.92
#   4  -13.70   -0.07    0.00    6.35    0.24    0.00    0.00      -7.17   15.45    0.59
#   5   -7.08   -0.02    0.00    3.64    0.14    0.00    0.00      -3.32   15.81    0.59
#   6   10.81   -1.97    0.94   -6.96    0.42    0.00    0.00       3.23  -18.27    1.09
#   7   -5.77   -1.72    0.30    5.63   -1.84    0.00    0.00      -3.40   13.85   -4.53
#   8    3.82   -4.16    2.00   -7.01    0.55    0.00    0.00      -4.80  -14.05    1.10
#   9    5.26   -0.99    0.05   -5.13    0.29    0.00    0.00      -0.51  -13.84    0.78
#  10   -0.48   -1.18    0.14    1.21   -0.27    0.00    0.00      -0.58    3.04   -0.67
#  11    0.21   -1.35    0.23   -0.46   -0.16    0.00    0.00      -1.53   -1.17   -0.40
#  12    0.00   -1.78    0.47   -0.43   -0.22    0.00    0.00      -1.96   -0.92   -0.46
#  13   -0.28   -1.73    0.51   -0.58   -0.16    0.00    0.00      -2.23   -1.08   -0.29
#  14   -0.30   -3.78    1.02   -0.69   -0.50    0.00    0.00      -4.26   -1.10   -0.80
#  15    1.35   -1.77    0.82    1.22    0.01    0.00    0.00       1.62    2.06    0.01
#  16   -1.45   -1.94    1.71   -0.71   -0.25    0.00    0.00      -2.63   -1.24   -0.43
#  17   -1.39   -1.71    1.56   -0.70   -0.26    0.00    0.00      -2.49   -1.17   -0.43
#  18   -0.51   -1.63    0.41   -0.56   -0.19    0.00    0.00      -2.48   -1.22   -0.42
#  19   -0.13   -1.52    0.30   -0.71   -0.20    0.00    0.00      -2.26   -1.64   -0.46
#  20  -15.85   -0.18    0.08    6.07    0.23    0.00    0.00      -9.64   15.49    0.59
#  21   -9.16   -0.02    0.00    3.53    0.11    0.00    0.00      -5.54   12.44    0.40
#  22   -8.53   -0.09    0.02    4.27    0.18    0.00    0.00      -4.16   14.09    0.59
#  23   -2.58   -0.17    0.02    3.88    0.33    0.00    0.00       1.49    6.95    0.59
#  24   -3.85   -0.01    0.00    1.44    0.05    0.00    0.00      -2.36   11.58    0.40
#  25   -0.55   -0.21    0.02    0.50   -0.05    0.00    0.00      -0.29    2.28   -0.21
#  26   -0.16   -0.42    0.10    0.40   -0.11    0.00    0.00      -0.20    0.98   -0.28
#  27    0.16   -0.96    1.02    1.31   -0.15    0.00    0.00       1.39    2.46   -0.28
#  28    1.34   -0.29    0.03    0.24   -0.06    0.00    0.00       1.27    0.72   -0.17
#  29    0.16   -0.42    0.23    1.00   -0.09    0.00    0.00       0.89    3.15   -0.28
@<TRIPOS>MOLECULE
E2932690
   29    29     0     0     0
SMALL
USER_CHARGES


@<TRIPOS>ATOM
      1 N1         23.6860   21.1762   59.7077 N.pl3     1            -0.8046
      2 C1         23.4526   20.1312   60.4987 C.cat     1             0.7501
      3 N2         23.3617   18.9096   59.9779 N.pl3     1            -0.7693
      4 H1         23.4654   18.7809   59.0221 H         1             0.4454
      5 H2         23.1916   18.1482   60.5542 H         1             0.4469
      6 N3         23.3056   20.3136   61.8514 N.pl3     1            -0.6647
      7 C2         23.0634   19.2299   62.6719 C.2       1             0.5958
      8 N4         22.3722   19.3823   63.7652 N.2       1            -0.6883
      9 N5         23.5522   17.9890   62.3345 N.pl3     1            -0.6628
     10 C3         22.8622   16.8338   62.7263 C.ar      1             0.1421
     11 C4         23.5600   15.6591   62.9746 C.ar      1            -0.0890
     12 C5         22.8808   14.5212   63.3611 C.ar      1            -0.0695
     13 C6         21.4990   14.5512   63.5016 C.ar      1            -0.0942
     14 S1         20.6316   13.0991   63.9954 S.3       1            -0.0801
     15 C7         19.1889   13.7337   64.8934 C.3       1             0.2697
     16 F1         19.5724   14.8250   65.6805 F         1            -0.1796
     17 F2         18.2114   14.1393   63.9784 F         1            -0.1790
     18 C8         20.8010   15.7266   63.2531 C.ar      1            -0.1001
     19 C9         21.4816   16.8656   62.8718 C.ar      1            -0.1164
     20 H3         23.7878   21.0476   58.7517 H         1             0.4460
     21 H4         23.7503   22.0667   60.0869 H         1             0.4447
     22 H5         23.3719   21.2039   62.2309 H         1             0.4512
     23 H6         22.0901   20.2683   64.0410 H         1             0.3672
     24 H7         24.3744   17.9136   61.8253 H         1             0.4155
     25 H8         24.6342   15.6358   62.8650 H         1             0.1510
     26 H9         23.4235   13.6075   63.5538 H         1             0.1400
     27 H10        18.7847   12.9488   65.5328 H         1             0.1635
     28 H11        19.7269   15.7502   63.3619 H         1             0.1352
     29 H12        20.9397   17.7805   62.6825 H         1             0.1332
@<TRIPOS>BOND
     1    1    2 1 
     2    1   20 1 
     3    1   21 1 
     4    2    3 2 
     5    2    6 1 
     6    3    4 1 
     7    3    5 1 
     8    6    7 1 
     9    6   22 1 
    10    7    8 2 
    11    7    9 1 
    12    8   23 1 
    13    9   10 1 
    14    9   24 1 
    15   10   19 ar
    16   10   11 ar
    17   11   12 ar
    18   11   25 1 
    19   12   13 ar
    20   12   26 1 
    21   13   14 1 
    22   13   18 ar
    23   14   15 1 
    24   15   16 1 
    25   15   17 1 
    26   15   27 1 
    27   18   19 ar
    28   18   28 1 
    29   19   29 1 
##########                 Name:            E20709972
##########          Protonation:                   61
##########               SMILES:   c1cc(ccc1CN2CC[NH+](C[C@@H]2CCO)CCO)F
##########            Long Name:   S)-1-[(4-fluorophenyl)methyl]-4-(2-hydroxyethyl)piperazin-4-ium-2-yl]ethanol
##########          FlexRecCode: 1
##########               Number:                  608
##########   Ligand Source File: /raidb/db2/rgc/leads-emolecules-300/2-leads-lt300-emolecules-1-0000081.db2.gz
##########           GlobalRank: 537
##########                 Rank:                    1
##########               Setnum:                   83
##########             Matchnum:                 1885
##########                Cloud:                    1
##########        Electrostatic:           -27.383423
##########        Van der Waals:           -22.034512
##########  Ligand Polar Desolv:             5.491178
########## Ligand Apolar Desolv:            -0.333391
##########      Internal Energy:             0.000000
##########      Receptor Energy: 0.0
########## Receptor Desolvation:             0.000000
########## Receptor Hydrophobic:             0.000000
##########         Total Energy: -44.26
##########        Ligand Charge:             1.000000
##########            Arbitrary:    +999.9990
##########     heavy atom count:   20
##########           pose count:    1
##########        Ligand Energy:             0.000000
# num electro vdwattr vdwrepu polsolv apolsol rdesolv rhydroe totalscore fullpol fullapo
#   1    1.85   -2.60    1.22   -3.43    0.69    0.00    0.00      -2.27   -8.74    1.75
#   2   -0.53   -0.71    0.12    0.30   -0.04    0.00    0.00      -0.86    1.05   -0.13
#   3    1.47   -0.97    0.24   -0.78   -0.07    0.00    0.00      -0.10   -2.37   -0.21
#   4   -0.61   -0.45    0.02    0.53   -0.04    0.00    0.00      -0.55    2.01   -0.16
#   5    0.10   -0.50    0.04    0.01   -0.08    0.00    0.00      -0.45    0.02   -0.33
#   6    6.49   -0.81    0.08   -3.57    0.14    0.00    0.00       2.34  -10.85    0.43
#   7  -10.55   -0.03    0.00    3.20    0.11    0.00    0.00      -7.26   14.67    0.52
#   8    0.27   -1.14    0.59   -0.10   -0.11    0.00    0.00      -0.48   -0.30   -0.32
#   9   -0.53   -0.56    0.05    0.27   -0.04    0.00    0.00      -0.80    1.00   -0.14
#  10    8.34   -1.86    1.28   -4.92    0.55    0.00    0.00       3.39  -14.99    1.68
#  11    0.05   -0.69    0.04    0.18   -0.17    0.00    0.00      -0.59    0.43   -0.42
#  12   -0.26   -0.87    0.18    0.04   -0.14    0.00    0.00      -1.05    0.12   -0.38
#  13    4.45   -0.95    0.11   -3.79    0.91    0.00    0.00       0.72  -12.49    2.98
#  14   -0.44   -0.85    0.11    0.66   -0.13    0.00    0.00      -0.64    1.83   -0.37
#  15    0.11   -1.44    0.24   -0.40   -0.14    0.00    0.00      -1.63   -0.98   -0.35
#  16   -0.20   -1.56    0.33   -0.42   -0.16    0.00    0.00      -2.02   -0.99   -0.38
#  17   -0.77   -1.62    0.34   -0.88   -0.25    0.00    0.00      -3.17   -1.68   -0.47
#  18    0.41   -1.89    0.35   -0.05   -0.20    0.00    0.00      -1.38   -0.09   -0.34
#  19   -0.44   -1.33    0.23   -0.33   -0.31    0.00    0.00      -2.18   -0.51   -0.48
#  20   -0.23   -2.42    0.76   -0.78   -0.25    0.00    0.00      -2.91   -1.44   -0.47
#  21    0.06   -1.82    0.46   -0.42   -0.21    0.00    0.00      -1.93   -0.92   -0.45
#  22   -6.35   -0.16    0.03    3.11    0.58    0.00    0.00      -2.79    6.63    1.24
#  23   -0.14   -0.09    0.00    0.15   -0.02    0.00    0.00      -0.10    1.66   -0.28
#  24   -0.40   -0.15    0.02    0.32   -0.03    0.00    0.00      -0.25    2.17   -0.23
#  25   -2.08   -0.65    0.54    0.32   -0.09    0.00    0.00      -1.96    0.99   -0.28
#  26   -0.78   -0.37    0.08    0.25   -0.07    0.00    0.00      -0.89    0.77   -0.21
#  27   -0.43   -0.12    0.01    0.32   -0.02    0.00    0.00      -0.24    2.99   -0.22
#  28   -1.07   -0.31    0.09    1.12   -0.04    0.00    0.00      -0.21    5.03   -0.17
#  29   -1.10   -0.10    0.00    0.44   -0.03    0.00    0.00      -0.79    4.19   -0.28
#  30   -3.45   -0.64    0.82    1.53   -0.09    0.00    0.00      -1.82    4.65   -0.28
#  31   -1.61   -0.64    0.63    1.30   -0.04    0.00    0.00      -0.36    4.74   -0.15
#  32   -0.69   -0.15    0.01    0.26   -0.04    0.00    0.00      -0.61    1.83   -0.28
#  33   -0.47   -0.09    0.00    0.26   -0.02    0.00    0.00      -0.32    2.85   -0.23
#  34  -11.25   -0.13    0.06    3.11    0.37    0.00    0.00      -7.85   10.31    1.24
#  35   -1.49   -0.25    0.02    1.45   -0.07    0.00    0.00      -0.35    5.49   -0.28
#  36   -2.83   -0.25    0.02    1.21   -0.09    0.00    0.00      -1.94    3.97   -0.28
#  37   -0.56   -0.34    0.15    0.76   -0.06    0.00    0.00      -0.04    2.79   -0.21
#  38   -2.37   -0.45    0.21    0.74   -0.08    0.00    0.00      -1.96    2.03   -0.22
#  39   -0.55   -0.45    0.23    0.39   -0.05    0.00    0.00      -0.43    1.55   -0.19
#  40   -0.29   -0.29    0.03    0.55   -0.09    0.00    0.00      -0.08    1.82   -0.28
#  41    0.36   -0.30    0.05    1.13   -0.09    0.00    0.00       1.15    3.66   -0.28
#  42    1.18   -0.27    0.02    0.46   -0.09    0.00    0.00       1.30    1.39   -0.28
#  43    0.27   -0.84    0.50    0.38   -0.14    0.00    0.00       0.17    0.74   -0.28
#  44   -0.35   -0.31    0.05    0.63   -0.09    0.00    0.00      -0.07    2.01   -0.28
@<TRIPOS>MOLECULE
E20709972
   44    45     0     0     0
SMALL
USER_CHARGES


@<TRIPOS>ATOM
      1 O1         27.0673   18.5090   57.8361 O.3       1            -0.5665
      2 C1         26.8695   18.5382   59.2511 C.3       1             0.0735
      3 C2         25.5906   17.7757   59.6032 C.3       1            -0.1217
      4 C3         25.3789   17.8069   61.1181 C.3       1             0.0660
      5 C4         25.2470   19.2578   61.5859 C.3       1            -0.0095
      6 N1         24.0897   19.8807   60.9301 N.4       1            -0.3806
      7 H1         24.2152   19.8524   59.9292 H         1             0.4361
      8 C5         23.9721   21.2778   61.3688 C.3       1            -0.0166
      9 C6         24.9640   22.1426   60.5884 C.3       1             0.0476
     10 O2         24.6752   22.0562   59.1916 O.3       1            -0.5788
     11 C7         22.8671   19.1507   61.2905 C.3       1            -0.0034
     12 C8         22.9825   17.6990   60.8206 C.3       1             0.0202
     13 N2         24.1506   17.0746   61.4571 N.3       1            -0.5265
     14 C9         23.9738   16.9888   62.9130 C.3       1             0.0914
     15 C10        23.0298   15.8601   63.2386 C.ar      1            -0.1062
     16 C11        21.6700   16.0971   63.3142 C.ar      1            -0.0882
     17 C12        20.8033   15.0628   63.6129 C.ar      1            -0.1527
     18 C13        21.2975   13.7888   63.8358 C.ar      1             0.1120
     19 F1         20.4513   12.7769   64.1274 F         1            -0.1328
     20 C14        22.6597   13.5526   63.7594 C.ar      1            -0.1510
     21 C15        23.5240   14.5874   63.4559 C.ar      1            -0.0637
     22 H2         26.3475   18.9100   57.3299 H         1             0.3917
     23 H3         27.7198   18.0698   59.7466 H         1             0.0472
     24 H4         26.7792   19.5722   59.5841 H         1             0.0443
     25 H5         24.7402   18.2440   59.1077 H         1             0.0946
     26 H6         25.6808   16.7417   59.2702 H         1             0.0965
     27 H7         26.2298   17.3401   61.6142 H         1             0.0692
     28 H8         25.1074   19.2798   62.6667 H         1             0.1343
     29 H9         26.1515   19.8072   61.3252 H         1             0.1442
     30 H10        22.9579   21.6322   61.1849 H         1             0.1409
     31 H11        24.1924   21.3437   62.4344 H         1             0.1386
     32 H12        24.8768   23.1792   60.9140 H         1             0.0951
     33 H13        25.9783   21.7881   60.7724 H         1             0.0691
     34 H14        24.7338   21.1604   58.8325 H         1             0.4101
     35 H15        22.7362   19.1731   62.3724 H         1             0.1380
     36 H16        22.0086   19.6206   60.8108 H         1             0.1414
     37 H17        22.0810   17.1533   61.0996 H         1             0.0620
     38 H18        23.1021   17.6753   59.7375 H         1             0.1280
     39 H19        24.9383   16.8037   63.3859 H         1             0.1047
     40 H20        23.5609   17.9265   63.2847 H         1             0.0585
     41 H21        21.2847   17.0909   63.1403 H         1             0.1282
     42 H22        19.7411   15.2483   63.6725 H         1             0.1392
     43 H23        23.0464   12.5593   63.9335 H         1             0.1406
     44 H24        24.5861   14.4025   63.3922 H         1             0.1349
@<TRIPOS>BOND
     1    1    2 1 
     2    1   22 1 
     3    2    3 1 
     4    2   23 1 
     5    2   24 1 
     6    3    4 1 
     7    3   25 1 
     8    3   26 1 
     9    4   13 1 
    10    4    5 1 
    11    4   27 1 
    12    5    6 1 
    13    5   28 1 
    14    5   29 1 
    15    6    7 1 
    16    6    8 1 
    17    6   11 1 
    18    8    9 1 
    19    8   30 1 
    20    8   31 1 
    21    9   10 1 
    22    9   32 1 
    23    9   33 1 
    24   10   34 1 
    25   11   12 1 
    26   11   35 1 
    27   11   36 1 
    28   12   13 1 
    29   12   37 1 
    30   12   38 1 
    31   13   14 1 
    32   14   15 1 
    33   14   39 1 
    34   14   40 1 
    35   15   21 ar
    36   15   16 ar
    37   16   17 ar
    38   16   41 1 
    39   17   18 ar
    40   17   42 1 
    41   18   19 1 
    42   18   20 ar
    43   20   21 ar
    44   20   43 1 
    45   21   44 1 
##########                 Name:            E44822360
##########          Protonation:                   97
##########               SMILES:   c1cnccc1C(=O)NC[C@@H]2[C@H]([C@@H](CO2)[NH2+]C3CCC3)O
##########            Long Name:   -4-hydroxy-5-[(pyridine-4-carbonylamino)methyl]tetrahydrofuran-3-yl]ammonium
##########          FlexRecCode: 1
##########               Number:                  594
##########   Ligand Source File: /raidb/db2/rgc/leads-emolecules-300/leads-emolecules-2e-0000118.db2.gz
##########           GlobalRank: 559
##########                 Rank:                    1
##########               Setnum:                  148
##########             Matchnum:                 2242
##########                Cloud:                    1
##########        Electrostatic:           -33.180508
##########        Van der Waals:           -23.209131
##########  Ligand Polar Desolv:            12.162302
########## Ligand Apolar Desolv:             0.070104
##########      Internal Energy:             0.000000
##########      Receptor Energy: 0.0
########## Receptor Desolvation:             0.000000
########## Receptor Hydrophobic:             0.000000
##########         Total Energy: -44.16
##########        Ligand Charge:             1.000000
##########            Arbitrary:    +999.9990
##########     heavy atom count:   21
##########           pose count:    1
##########        Ligand Energy:             0.000000
# num electro vdwattr vdwrepu polsolv apolsol rdesolv rhydroe totalscore fullpol fullapo
#   1    6.11   -0.59    0.03   -3.52    0.44    0.00    0.00       2.47  -13.54    1.71
#   2   -1.11   -0.83    0.15    0.72   -0.05    0.00    0.00      -1.13    2.07   -0.15
#   3   -0.33   -0.63    0.03    0.36   -0.05    0.00    0.00      -0.61    0.94   -0.13
#   4   -0.74   -1.22    0.18    0.84   -0.17    0.00    0.00      -1.11    1.93   -0.40
#   5    0.92   -1.68    0.25   -4.49    1.02    0.00    0.00      -3.97  -10.17    2.31
#   6    1.29   -1.59    0.32    2.18   -0.29    0.00    0.00       1.92    4.99   -0.66
#   7   -2.62   -1.77    0.64   -1.25    0.18    0.00    0.00      -4.83   -2.81    0.40
#   8   -0.31   -1.67    0.40   -0.47   -0.20    0.00    0.00      -2.25   -0.97   -0.41
#   9   -0.16   -1.97    0.55   -0.59   -0.23    0.00    0.00      -2.39   -1.19   -0.46
#  10    0.29   -3.41    1.80    0.34   -0.56    0.00    0.00      -1.54    0.59   -0.98
#  11   -2.44   -3.93    1.73   -1.55    1.33    0.00    0.00      -4.86   -2.40    2.05
#  12    0.38   -2.48    0.78    0.18   -0.62    0.00    0.00      -1.77    0.28   -0.98
#  13   -0.62   -1.63    0.24   -0.49   -0.26    0.00    0.00      -2.78   -0.84   -0.45
#  14    5.57   -0.97    0.06   -3.95    0.65    0.00    0.00       1.36   -8.89    1.46
#  15   -0.77   -1.22    0.25    0.22   -0.07    0.00    0.00      -1.58    0.46   -0.14
#  16    0.26   -1.28    0.37    0.41   -0.11    0.00    0.00      -0.36    1.06   -0.29
#  17   14.08   -3.20    4.09   -5.91    0.23    0.00    0.00       9.30  -15.61    0.60
#  18  -19.06   -0.36    0.38    7.05    0.25    0.00    0.00     -11.74   16.09    0.56
#  19  -13.02   -0.15    0.07    6.07    0.20    0.00    0.00      -6.84   16.41    0.54
#  20    0.22   -1.09    0.33    0.52   -0.11    0.00    0.00      -0.13    1.62   -0.34
#  21    0.81   -0.68    0.12   -1.07   -0.09    0.00    0.00      -0.91   -3.81   -0.32
#  22    0.58   -0.52    0.03   -1.24   -0.10    0.00    0.00      -1.25   -4.12   -0.34
#  23    1.85   -1.17    0.50   -1.21   -0.10    0.00    0.00      -0.13   -3.71   -0.32
#  24   -5.58   -0.01    0.00    1.26    0.15    0.00    0.00      -4.18   10.07    1.24
#  25   -1.42   -0.72    0.88    1.25   -0.07    0.00    0.00      -0.09    4.34   -0.26
#  26   -1.15   -0.14    0.00    0.25   -0.03    0.00    0.00      -1.07    2.01   -0.28
#  27   -0.44   -0.69    0.25    0.74   -0.12    0.00    0.00      -0.27    1.65   -0.28
#  28   -0.49   -0.52    0.15    0.63   -0.12    0.00    0.00      -0.35    1.54   -0.28
#  29   -0.35   -0.03    0.00    2.57    0.15    0.00    0.00       2.34    7.43    0.44
#  30   -0.13   -0.30    0.05    1.10   -0.07    0.00    0.00       0.65    3.60   -0.22
#  31    0.09   -1.12    1.33    1.26   -0.15    0.00    0.00       1.41    2.38   -0.28
#  32    0.17   -0.65    0.24    0.64   -0.16    0.00    0.00       0.24    1.13   -0.28
#  33    1.30   -0.27    0.02    0.24   -0.09    0.00    0.00       1.19    0.68   -0.27
#  34   -3.11   -0.70    0.62    1.04   -0.12    0.00    0.00      -2.27    2.47   -0.28
#  35   -2.25   -0.47    0.14    1.83   -0.08    0.00    0.00      -0.82    4.77   -0.22
#  36   -5.35   -0.78    1.18    1.87   -0.09    0.00    0.00      -3.17    5.56   -0.27
#  37   -2.07   -0.31    0.08    1.48   -0.06    0.00    0.00      -0.88    5.86   -0.22
#  38   -0.31   -0.57    0.62    0.89   -0.07    0.00    0.00       0.56    3.47   -0.27
#  39   -0.28   -0.12    0.00    0.24   -0.03    0.00    0.00      -0.19    2.08   -0.28
#  40   -0.16   -0.20    0.03    0.15   -0.06    0.00    0.00      -0.24    0.74   -0.28
#  41   -0.31   -0.13    0.01    0.16   -0.04    0.00    0.00      -0.31    1.24   -0.28
#  42   -0.66   -0.50    0.34    0.52   -0.07    0.00    0.00      -0.38    2.05   -0.28
#  43   -1.84   -0.39    0.19    0.90   -0.07    0.00    0.00      -1.22    3.53   -0.28
@<TRIPOS>MOLECULE
E44822360
   43    45     0     0     0
SMALL
USER_CHARGES


@<TRIPOS>ATOM
      1 O1         25.2150   20.2095   61.2535 O.3       1            -0.5409
      2 C1         23.8174   20.2197   61.5508 C.3       1             0.0721
      3 C2         23.3036   18.8051   61.7576 C.3       1             0.0274
      4 C3         22.7438   18.6539   63.1735 C.3       1             0.1249
      5 N1         22.6972   17.2341   63.5312 N.am      1            -0.7251
      6 C4         21.5953   16.5066   63.2605 C.2       1             0.5662
      7 O2         20.6405   17.0286   62.7197 O.2       1            -0.5204
      8 C5         21.5483   15.0707   63.6221 C.ar      1            -0.0960
      9 C6         22.7201   14.3128   63.7085 C.ar      1            -0.1438
     10 C7         22.6301   12.9771   64.0494 C.ar      1             0.1009
     11 N2         21.4614   12.4174   64.2909 N.ar      1            -0.4623
     12 C8         20.3332   13.0954   64.2205 C.ar      1             0.1042
     13 C9         20.3314   14.4373   63.8921 C.ar      1            -0.1129
     14 O3         22.2693   18.5925   60.7991 O.3       1            -0.3448
     15 C10        21.7293   19.8964   60.5102 C.3       1             0.0337
     16 C11        23.0168   20.7228   60.3534 C.3       1            -0.0104
     17 N3         22.7411   22.1614   60.4658 N.4       1            -0.4947
     18 H1         21.9631   22.4023   59.8703 H         1             0.4300
     19 H2         22.5146   22.3866   61.4229 H         1             0.4307
     20 C12        23.9282   22.9212   60.0517 C.3       1            -0.0137
     21 C13        24.7385   23.4879   61.2295 C.3       1            -0.1471
     22 C14        24.9247   24.7608   60.3867 C.3       1            -0.1349
     23 C15        23.6229   24.3775   59.6633 C.3       1            -0.1475
     24 H3         25.4541   19.6444   60.5062 H         1             0.4092
     25 H4         23.6178   20.8315   62.4306 H         1             0.0962
     26 H5         24.1098   18.0890   61.5981 H         1             0.1097
     27 H6         23.3854   19.1849   63.8765 H         1             0.0926
     28 H7         21.7377   19.0716   63.2128 H         1             0.0839
     29 H8         23.4594   16.8173   63.9628 H         1             0.4076
     30 H9         23.6809   14.7647   63.5114 H         1             0.1366
     31 H10        23.5296   12.3833   64.1188 H         1             0.1656
     32 H11        19.3979   12.5960   64.4262 H         1             0.1690
     33 H12        19.4037   14.9878   63.8408 H         1             0.1508
     34 H13        21.1551   19.8860   59.5838 H         1             0.1133
     35 H14        21.1267   20.2636   61.3409 H         1             0.1196
     36 H15        23.5223   20.4908   59.4161 H         1             0.1691
     37 H16        24.5350   22.3915   59.3173 H         1             0.1617
     38 H17        24.1468   23.6443   62.1315 H         1             0.1055
     39 H18        25.6675   22.9503   61.4193 H         1             0.1027
     40 H19        24.8484   25.6820   60.9644 H         1             0.0981
     41 H20        25.8050   24.7343   59.7446 H         1             0.1030
     42 H21        23.6511   24.5579   58.5887 H         1             0.1044
     43 H22        22.7262   24.7769   60.1373 H         1             0.1059
@<TRIPOS>BOND
     1    1    2 1 
     2    1   24 1 
     3    2   16 1 
     4    2    3 1 
     5    2   25 1 
     6    3    4 1 
     7    3   14 1 
     8    3   26 1 
     9    4    5 1 
    10    4   27 1 
    11    4   28 1 
    12    5    6 am
    13    5   29 1 
    14    6    7 2 
    15    6    8 1 
    16    8   13 ar
    17    8    9 ar
    18    9   10 ar
    19    9   30 1 
    20   10   11 ar
    21   10   31 1 
    22   11   12 ar
    23   12   13 ar
    24   12   32 1 
    25   13   33 1 
    26   14   15 1 
    27   15   16 1 
    28   15   34 1 
    29   15   35 1 
    30   16   17 1 
    31   16   36 1 
    32   17   18 1 
    33   17   19 1 
    34   17   20 1 
    35   20   23 1 
    36   20   21 1 
    37   20   37 1 
    38   21   22 1 
    39   21   38 1 
    40   21   39 1 
    41   22   23 1 
    42   22   40 1 
    43   22   41 1 
    44   23   42 1 
    45   23   43 1 
##########                 Name:             E3351185
##########          Protonation:                   59
##########               SMILES:   c1cc2c(cc1CN3CC[NH+](CC3)C[C@H](CO)O)OCO2
##########            Long Name:   (2R)-3-[4-(1,3-benzodioxol-5-ylmethyl)piperazin-1-ium-1-yl]propane-1,2-diol
##########          FlexRecCode: 1
##########               Number:                  325
##########   Ligand Source File: /raidb/db2/rgc/leads-emolecules-300/leads-emolecules-2g-0000029.db2.gz
##########           GlobalRank: 585
##########                 Rank:                    1
##########               Setnum:                   84
##########             Matchnum:                  738
##########                Cloud:                    1
##########        Electrostatic:           -30.799595
##########        Van der Waals:           -23.216978
##########  Ligand Polar Desolv:             9.938973
########## Ligand Apolar Desolv:             0.032359
##########      Internal Energy:             0.000000
##########      Receptor Energy: 0.0
########## Receptor Desolvation:             0.000000
########## Receptor Hydrophobic:             0.000000
##########         Total Energy: -44.05
##########        Ligand Charge:             1.000000
##########            Arbitrary:    +999.9990
##########     heavy atom count:   21
##########           pose count:    1
##########        Ligand Energy:             0.000000
# num electro vdwattr vdwrepu polsolv apolsol rdesolv rhydroe totalscore fullpol fullapo
#   1    1.01   -0.42    0.05   -1.41    0.24    0.00    0.00      -0.53   -9.45    1.62
#   2   -0.15   -0.24    0.01    0.05   -0.02    0.00    0.00      -0.35    0.36   -0.13
#   3   -0.83   -0.57    0.09    0.56   -0.03    0.00    0.00      -0.78    2.24   -0.13
#   4    7.67   -2.92    3.38   -4.41    0.51    0.00    0.00       4.23  -13.17    1.51
#   5    0.74   -0.53    0.07   -0.21   -0.07    0.00    0.00      -0.01   -0.85   -0.27
#   6    8.76   -1.56    1.08   -3.75    0.15    0.00    0.00       4.68  -11.01    0.43
#   7  -16.79   -0.16    0.08    5.25    0.18    0.00    0.00     -11.45   14.98    0.51
#   8    0.05   -0.93    0.13    0.20   -0.16    0.00    0.00      -0.70    0.52   -0.42
#   9   -0.32   -1.12    0.28    0.14   -0.16    0.00    0.00      -1.18    0.35   -0.39
#  10    4.47   -1.07    0.06   -5.30    1.30    0.00    0.00      -0.54  -13.14    3.21
#  11   -0.22   -1.29    0.26    0.98   -0.18    0.00    0.00      -0.45    2.17   -0.39
#  12   -0.07   -1.69    0.35   -0.29   -0.15    0.00    0.00      -1.84   -0.66   -0.34
#  13   -0.36   -1.73    0.44   -0.44   -0.21    0.00    0.00      -2.29   -0.97   -0.46
#  14    0.15   -1.67    0.36   -0.17   -0.19    0.00    0.00      -1.52   -0.30   -0.33
#  15    0.11   -2.18    0.51   -0.20   -0.19    0.00    0.00      -1.95   -0.36   -0.33
#  16   -1.76   -3.46    1.59   -0.72    0.34    0.00    0.00      -4.03   -1.12    0.52
#  17    0.53   -2.15    0.58    0.66    0.01    0.00    0.00      -0.36    1.00    0.02
#  18   -1.39   -1.54    0.19   -0.79    0.32    0.00    0.00      -3.21   -1.29    0.52
#  19    0.04   -2.19    0.75   -0.58   -0.23    0.00    0.00      -2.21   -1.18   -0.47
#  20    0.06   -1.84    0.54   -0.49   -0.16    0.00    0.00      -1.88   -1.13   -0.37
#  21   -0.18   -0.60    0.05    0.06   -0.12    0.00    0.00      -0.78    0.18   -0.37
#  22    0.15   -1.09    0.29    0.07   -0.15    0.00    0.00      -0.73    0.20   -0.41
#  23   -1.16   -0.01    0.00    0.65    0.12    0.00    0.00      -0.40    6.72    1.24
#  24   -0.13   -0.06    0.00    0.11   -0.01    0.00    0.00      -0.10    2.03   -0.28
#  25   -0.07   -0.06    0.00    0.09   -0.01    0.00    0.00      -0.05    1.83   -0.28
#  26   -1.09   -0.15    0.01    0.42   -0.04    0.00    0.00      -0.85    2.49   -0.21
#  27  -12.09   -0.32    0.24    4.19    0.49    0.00    0.00      -7.49   10.44    1.22
#  28   -1.34   -0.13    0.01    0.64   -0.02    0.00    0.00      -0.85    4.92   -0.15
#  29   -1.61   -0.13    0.01    0.75   -0.03    0.00    0.00      -1.01    6.71   -0.28
#  30   -3.17   -0.33    0.07    1.99   -0.09    0.00    0.00      -1.53    6.52   -0.28
#  31   -3.49   -0.33    0.06    1.39   -0.10    0.00    0.00      -2.47    4.07   -0.28
#  32   -0.60   -0.34    0.06    0.77   -0.06    0.00    0.00      -0.17    2.86   -0.21
#  33   -1.80   -0.91    1.01    1.05   -0.11    0.00    0.00      -0.76    2.69   -0.28
#  34   -0.18   -0.62    0.21    0.87   -0.12    0.00    0.00       0.16    2.10   -0.28
#  35    0.04   -0.76    0.74    0.89   -0.13    0.00    0.00       0.78    1.91   -0.27
#  36    1.38   -0.39    0.11    0.58   -0.10    0.00    0.00       1.58    1.70   -0.28
#  37    0.37   -0.79    0.41    0.82   -0.18    0.00    0.00       0.63    1.29   -0.28
#  38   -0.28   -1.22    1.59    0.48   -0.18    0.00    0.00       0.39    0.73   -0.28
#  39   -0.45   -0.54    0.24    0.58   -0.11    0.00    0.00      -0.29    1.43   -0.28
#  40   -0.28   -0.37    0.11    1.09   -0.08    0.00    0.00       0.47    3.96   -0.28
#  41   -0.51   -0.14    0.01    0.34   -0.03    0.00    0.00      -0.33    2.71   -0.22
#  42   -0.89   -0.25    0.07    0.33   -0.04    0.00    0.00      -0.79    1.57   -0.21
#  43   -2.90   -0.50    0.24    1.44   -0.11    0.00    0.00      -1.83    3.65   -0.28
#  44   -2.18   -0.42    0.15    1.23   -0.07    0.00    0.00      -1.29    3.85   -0.22
@<TRIPOS>MOLECULE
E3351185
   44    46     0     0     0
SMALL
USER_CHARGES


@<TRIPOS>ATOM
      1 O1         27.8333   18.8062   61.8222 O.3       1            -0.5583
      2 C1         27.8431   19.2549   60.4655 C.3       1             0.0487
      3 C2         26.4833   18.9706   59.8244 C.3       1             0.0848
      4 O2         26.4933   19.4192   58.4677 O.3       1            -0.5438
      5 C3         25.3902   19.7103   60.5981 C.3       1            -0.0545
      6 N1         24.0846   19.4375   59.9827 N.4       1            -0.3775
      7 H1         24.0918   19.7542   59.0246 H         1             0.4330
      8 C4         23.0353   20.1482   60.7253 C.3       1            -0.0024
      9 C5         23.0363   19.6814   62.1826 C.3       1             0.0244
     10 N2         22.7976   18.2320   62.2299 N.3       1            -0.5326
     11 C6         22.7348   17.7537   63.6174 C.3       1             0.1030
     12 C7         22.4896   16.2669   63.6257 C.ar      1            -0.0889
     13 C8         21.1944   15.7813   63.6375 C.ar      1            -0.0769
     14 C9         20.9682   14.4162   63.6451 C.ar      1             0.0371
     15 C10        22.0470   13.5337   63.6408 C.ar      1             0.0450
     16 O3         21.5476   12.2659   63.6500 O.3       1            -0.3054
     17 C11        20.1854   12.3608   63.2073 C.3       1             0.2123
     18 O4         19.8245   13.6755   63.6569 O.3       1            -0.3058
     19 C12        23.3401   14.0260   63.6291 C.ar      1            -0.1000
     20 C13        23.5593   15.3917   63.6158 C.ar      1            -0.1075
     21 C14        23.8266   17.5084   61.4696 C.3       1             0.0184
     22 C15        23.8189   17.9932   60.0184 C.3       1            -0.0084
     23 H2         27.6630   17.8596   61.9222 H         1             0.3970
     24 H3         28.0407   20.3265   60.4386 H         1             0.0635
     25 H4         28.6220   18.7280   59.9143 H         1             0.0612
     26 H5         26.2859   17.8990   59.8514 H         1             0.1293
     27 H6         25.6611   19.2705   57.9980 H         1             0.3885
     28 H7         25.3825   19.3683   61.6331 H         1             0.1402
     29 H8         25.5877   20.7819   60.5712 H         1             0.1383
     30 H9         23.2263   21.2206   60.6872 H         1             0.1367
     31 H10        22.0651   19.9357   60.2763 H         1             0.1428
     32 H11        24.0018   19.9060   62.6359 H         1             0.0607
     33 H12        22.2480   20.1978   62.7303 H         1             0.1258
     34 H13        23.6782   17.9692   64.1191 H         1             0.0601
     35 H14        21.9221   18.2589   64.1393 H         1             0.1009
     36 H15        20.3602   16.4672   63.6412 H         1             0.1377
     37 H16        20.1220   12.2886   62.1216 H         1             0.1385
     38 H17        19.5661   11.6014   63.6849 H         1             0.0911
     39 H18        24.1779   13.3442   63.6258 H         1             0.1400
     40 H19        24.5688   15.7751   63.6022 H         1             0.1336
     41 H20        24.8050   17.6973   61.9110 H         1             0.0603
     42 H21        23.6149   16.4396   61.4971 H         1             0.1286
     43 H22        22.8447   17.7918   59.5731 H         1             0.1434
     44 H23        24.5910   17.4678   59.4563 H         1             0.1373
@<TRIPOS>BOND
     1    1    2 1 
     2    1   23 1 
     3    2    3 1 
     4    2   24 1 
     5    2   25 1 
     6    3    4 1 
     7    3    5 1 
     8    3   26 1 
     9    4   27 1 
    10    5    6 1 
    11    5   28 1 
    12    5   29 1 
    13    6    7 1 
    14    6   22 1 
    15    6    8 1 
    16    8    9 1 
    17    8   30 1 
    18    8   31 1 
    19    9   10 1 
    20    9   32 1 
    21    9   33 1 
    22   10   11 1 
    23   10   21 1 
    24   11   12 1 
    25   11   34 1 
    26   11   35 1 
    27   12   20 ar
    28   12   13 ar
    29   13   14 ar
    30   13   36 1 
    31   14   18 1 
    32   14   15 ar
    33   15   16 1 
    34   15   19 ar
    35   16   17 1 
    36   17   18 1 
    37   17   37 1 
    38   17   38 1 
    39   19   20 ar
    40   19   39 1 
    41   20   40 1 
    42   21   22 1 
    43   21   41 1 
    44   21   42 1 
    45   22   43 1 
    46   22   44 1 
##########                 Name:            E31904901
##########          Protonation:                   43
##########               SMILES:   CNC(=O)C[NH+]1CC[C@@H](CC1)Nc2c(c(ccc2)F)C#N
##########            Long Name:   2-[4-(2-cyano-3-fluoro-anilino)piperidin-1-ium-1-yl]-N-methyl-acetamide
##########          FlexRecCode: 1
##########               Number:                  635
##########   Ligand Source File: /raidb/db2/rgc/leads-emolecules-300/leads-emolecules-3-bk-0000001.db2.gz
##########           GlobalRank: 596
##########                 Rank:                    1
##########               Setnum:                  124
##########             Matchnum:                 6929
##########                Cloud:                    1
##########        Electrostatic:           -24.118309
##########        Van der Waals:           -26.928484
##########  Ligand Polar Desolv:             9.516428
########## Ligand Apolar Desolv:            -2.485242
##########      Internal Energy:             0.000000
##########      Receptor Energy: 0.0
########## Receptor Desolvation:             0.000000
########## Receptor Hydrophobic:             0.000000
##########         Total Energy: -44.02
##########        Ligand Charge:             1.000000
##########            Arbitrary:    +999.9990
##########     heavy atom count:   21
##########           pose count:    1
##########        Ligand Energy:             0.000000
# num electro vdwattr vdwrepu polsolv apolsol rdesolv rhydroe totalscore fullpol fullapo
#   1    0.21   -1.09    0.51    0.41   -0.19    0.00    0.00      -0.15    1.27   -0.57
#   2   -0.13   -1.21    0.25   -4.64    0.73    0.00    0.00      -5.00  -15.82    2.48
#   3   -1.94   -1.52    0.61    3.18   -0.17    0.00    0.00       0.16   11.53   -0.62
#   4   -0.87   -1.86    0.71   -3.21    0.09    0.00    0.00      -5.13  -11.25    0.33
#   5    0.44   -0.74    0.13    0.07   -0.12    0.00    0.00      -0.22    0.24   -0.39
#   6    6.42   -1.71    1.20   -4.38    0.07    0.00    0.00       1.60  -12.03    0.20
#   7   -9.80   -0.17    0.08    4.67    0.18    0.00    0.00      -5.04   13.42    0.52
#   8    0.12   -0.99    0.17    0.14   -0.12    0.00    0.00      -0.69    0.40   -0.36
#   9    1.00   -1.27    0.21   -1.56   -0.10    0.00    0.00      -1.72   -3.69   -0.24
#  10   -1.05   -0.76    0.06    1.34   -0.09    0.00    0.00      -0.51    3.13   -0.22
#  11    2.51   -0.98    0.13   -2.32   -0.11    0.00    0.00      -0.77   -4.90   -0.24
#  12    0.08   -1.00    0.15    0.26   -0.16    0.00    0.00      -0.67    0.63   -0.38
#  13   -1.22   -1.78    0.49   -5.95    0.65    0.00    0.00      -7.81  -13.34    1.45
#  14    0.76   -1.57    0.37    2.08   -0.31    0.00    0.00       1.33    4.86   -0.72
#  15   -0.05   -1.58    0.31   -1.48   -0.18    0.00    0.00      -2.98   -3.43   -0.42
#  16   -0.01   -2.16    0.82    0.08   -0.23    0.00    0.00      -1.50    0.16   -0.47
#  17   -0.65   -2.38    0.58   -1.52   -0.28    0.00    0.00      -4.25   -2.60   -0.47
#  18    0.80   -1.82    0.32    0.38   -0.20    0.00    0.00      -0.52    0.64   -0.33
#  19   -0.34   -1.31    0.23   -0.32   -0.30    0.00    0.00      -2.03   -0.50   -0.47
#  20   -0.76   -1.62    0.38   -1.01   -0.21    0.00    0.00      -3.22   -1.93   -0.40
#  21    2.54   -1.94    0.39    0.64   -0.70    0.00    0.00       0.94    1.20   -1.31
#  22   -5.37   -2.91    1.18   -0.23    0.40    0.00    0.00      -6.93   -0.41    0.71
#  23    0.20   -0.52    0.78    0.11   -0.08    0.00    0.00       0.49    0.37   -0.28
#  24    0.26   -0.51    0.23    0.59   -0.09    0.00    0.00       0.48    1.84   -0.28
#  25    0.21   -0.30    0.19    0.06   -0.06    0.00    0.00       0.09    0.27   -0.28
#  26   -2.68   -0.01    0.00    1.99    0.10    0.00    0.00      -0.60   11.56    0.59
#  27   -3.00   -0.27    0.04    2.30   -0.07    0.00    0.00      -1.00    8.77   -0.28
#  28   -2.03   -0.13    0.01    1.11   -0.03    0.00    0.00      -1.08    8.99   -0.28
#  29   -1.38   -0.14    0.01    0.86   -0.04    0.00    0.00      -0.69    6.55   -0.28
#  30   -0.80   -0.56    0.30    0.70   -0.06    0.00    0.00      -0.42    2.29   -0.20
#  31   -0.52   -0.47    0.12    0.58   -0.10    0.00    0.00      -0.39    1.59   -0.28
#  32   -0.51   -0.75    0.26    0.63   -0.13    0.00    0.00      -0.51    1.31   -0.28
#  33   -0.94   -0.19    0.02    0.80   -0.04    0.00    0.00      -0.35    4.50   -0.22
#  34   -1.96   -0.28    0.02    1.23   -0.10    0.00    0.00      -1.09    3.34   -0.26
#  35   -1.30   -0.63    0.40    0.68   -0.11    0.00    0.00      -0.96    1.75   -0.28
#  36   -4.03   -0.60    0.36    2.69   -0.11    0.00    0.00      -1.68    7.03   -0.28
#  37   -3.27   -0.30    0.06    2.24   -0.08    0.00    0.00      -1.35    7.81   -0.28
#  38    4.40   -0.07    0.01    2.10    0.18    0.00    0.00       6.62    5.70    0.50
#  39   -0.27   -0.27    0.03    1.68   -0.06    0.00    0.00       1.13    6.32   -0.21
#  40   -0.12   -0.49    0.21    1.67   -0.11    0.00    0.00       1.17    4.30   -0.28
#  41    0.91   -0.86    0.46    0.86   -0.16    0.00    0.00       1.21    1.51   -0.28
@<TRIPOS>MOLECULE
E31904901
   41    42     0     0     0
SMALL
USER_CHARGES


@<TRIPOS>ATOM
      1 C1         25.3552   24.8571   62.7276 C.3       1             0.0775
      2 N1         24.8383   23.8789   61.7672 N.am      1            -0.7049
      3 C2         25.0109   22.5607   61.9890 C.2       1             0.4968
      4 O1         25.5941   22.1843   62.9836 O.2       1            -0.5264
      5 C3         24.4792   21.5545   61.0012 C.3       1            -0.0311
      6 N2         23.5098   20.6766   61.6703 N.4       1            -0.3721
      7 H1         22.9398   21.2234   62.2982 H         1             0.4308
      8 C4         24.2280   19.6488   62.4335 C.3       1            -0.0118
      9 C5         23.2252   18.7814   63.1973 C.3       1            -0.1535
     10 C6         22.2766   18.1095   62.2005 C.3       1             0.1403
     11 C7         21.5882   19.1883   61.3593 C.3       1            -0.1689
     12 C8         22.6529   20.0392   60.6634 C.3       1            -0.0034
     13 N3         21.2666   17.3378   62.9291 N.pl3     1            -0.7320
     14 C9         21.5041   16.0048   63.2444 C.ar      1             0.2813
     15 C10        22.8007   15.5612   63.4678 C.ar      1            -0.2136
     16 C11        23.0360   14.2373   63.7814 C.ar      1            -0.0092
     17 C12        21.9850   13.3407   63.8760 C.ar      1            -0.2013
     18 C13        20.6879   13.7616   63.6575 C.ar      1             0.1985
     19 F1         19.6662   12.8826   63.7511 F         1            -0.1193
     20 C14        20.4337   15.1019   63.3441 C.ar      1            -0.1362
     21 C15        19.0913   15.5482   63.1218 C.1       1             0.2439
     22 N4         18.0263   15.9021   62.9454 N.1       1            -0.3976
     23 H2         25.1221   25.8641   62.3816 H         1             0.0733
     24 H3         24.8921   24.6909   63.7004 H         1             0.0923
     25 H4         26.4358   24.7440   62.8156 H         1             0.0733
     26 H5         24.3719   24.1799   60.9718 H         1             0.4136
     27 H6         23.9896   22.0762   60.1789 H         1             0.1621
     28 H7         25.3034   20.9562   60.6128 H         1             0.1611
     29 H8         24.8016   19.0235   61.7494 H         1             0.1309
     30 H9         24.9051   20.1286   63.1401 H         1             0.1524
     31 H10        23.7603   18.0179   63.7618 H         1             0.1217
     32 H11        22.6512   19.4058   63.8819 H         1             0.0960
     33 H12        22.8438   17.4454   61.5483 H         1             0.1054
     34 H13        20.9532   18.7156   60.6100 H         1             0.1224
     35 H14        20.9802   19.8211   62.0057 H         1             0.0955
     36 H15        22.1661   20.8075   60.0623 H         1             0.1375
     37 H16        23.2608   19.4053   60.0181 H         1             0.1354
     38 H17        20.4322   17.7571   63.1916 H         1             0.4088
     39 H18        23.6268   16.2530   63.3959 H         1             0.1359
     40 H19        24.0470   13.8985   63.9537 H         1             0.1453
     41 H20        22.1806   12.3074   64.1216 H         1             0.1493
@<TRIPOS>BOND
     1    1    2 1 
     2    1   23 1 
     3    1   24 1 
     4    1   25 1 
     5    2    3 am
     6    2   26 1 
     7    3    4 2 
     8    3    5 1 
     9    5    6 1 
    10    5   27 1 
    11    5   28 1 
    12    6    7 1 
    13    6   12 1 
    14    6    8 1 
    15    8    9 1 
    16    8   29 1 
    17    8   30 1 
    18    9   10 1 
    19    9   31 1 
    20    9   32 1 
    21   10   11 1 
    22   10   13 1 
    23   10   33 1 
    24   11   12 1 
    25   11   34 1 
    26   11   35 1 
    27   12   36 1 
    28   12   37 1 
    29   13   14 1 
    30   13   38 1 
    31   14   20 ar
    32   14   15 ar
    33   15   16 ar
    34   15   39 1 
    35   16   17 ar
    36   16   40 1 
    37   17   18 ar
    38   17   41 1 
    39   18   19 1 
    40   18   20 ar
    41   20   21 1 
    42   21   22 3 
##########                 Name:             E1492998
##########          Protonation:                   59
##########               SMILES:   C[NH+]1CCN(CC1)Cc2nc(nc(n2)Nc3ccccc3)N
##########            Long Name:   -[(4-methylpiperazin-4-ium-1-yl)methyl]-N4-phenyl-1,3,5-triazine-2,4-diamine
##########          FlexRecCode: 1
##########               Number:                  435
##########   Ligand Source File: /raidb/db2/rgc/leads-emolecules-300/leads-emolecules-3-ah-0000002.db2.gz
##########           GlobalRank: 614
##########                 Rank:                    1
##########               Setnum:                  264
##########             Matchnum:                 1106
##########                Cloud:                    1
##########        Electrostatic:           -22.895559
##########        Van der Waals:           -28.485012
##########  Ligand Polar Desolv:            11.757674
########## Ligand Apolar Desolv:            -4.346506
##########      Internal Energy:             0.000000
##########      Receptor Energy: 0.0
########## Receptor Desolvation:             0.000000
########## Receptor Hydrophobic:             0.000000
##########         Total Energy: -43.97
##########        Ligand Charge:             1.000000
##########            Arbitrary:    +999.9990
##########     heavy atom count:   22
##########           pose count:    1
##########        Ligand Energy:             0.000000
# num electro vdwattr vdwrepu polsolv apolsol rdesolv rhydroe totalscore fullpol fullapo
#   1    1.30   -1.08    0.22   -0.73   -0.18    0.00    0.00      -0.47   -1.84   -0.45
#   2    8.96   -1.40    0.35   -4.52    0.24    0.00    0.00       3.63  -10.92    0.57
#   3  -14.50   -0.07    0.01    6.76    0.23    0.00    0.00      -7.57   16.52    0.56
#   4    0.05   -1.21    0.23    0.26   -0.21    0.00    0.00      -0.89    0.53   -0.43
#   5   -0.23   -0.91    0.14    0.14   -0.18    0.00    0.00      -1.04    0.32   -0.39
#   6    3.06   -1.13    0.15   -4.34    1.29    0.00    0.00      -0.97  -10.82    3.21
#   7    0.06   -1.15    0.24    0.91   -0.19    0.00    0.00      -0.13    2.04   -0.42
#   8    1.66   -1.69    0.42    1.81   -0.80    0.00    0.00       1.39    4.07   -1.80
#   9   -1.47   -1.73    0.36   -2.44    1.03    0.00    0.00      -4.25   -4.80    2.03
#  10    2.29   -2.04    0.38    2.20   -3.02    0.00    0.00      -0.19    3.62   -4.98
#  11   -5.29   -5.02    3.97   -4.42    0.61    0.00    0.00     -10.15   -6.87    0.95
#  12   -2.74   -1.94    0.29   -2.13    0.93    0.00    0.00      -5.60   -3.47    1.52
#  13    5.02   -1.69    0.24    2.11   -2.65    0.00    0.00       3.02    3.69   -4.65
#  14   -6.72   -2.60    1.17   -2.68    0.62    0.00    0.00     -10.21   -4.56    1.06
#  15    1.69   -2.46    0.99    0.52   -0.42    0.00    0.00       0.31    0.82   -0.67
#  16   -1.30   -3.30    3.11   -0.40   -0.24    0.00    0.00      -2.14   -0.66   -0.40
#  17   -1.08   -2.63    0.83   -0.44   -0.30    0.00    0.00      -3.62   -0.69   -0.47
#  18   -0.94   -4.30    3.29   -0.62   -0.31    0.00    0.00      -2.89   -0.93   -0.47
#  19   -0.62   -4.40    2.31   -0.52   -0.32    0.00    0.00      -3.55   -0.76   -0.47
#  20   -1.21   -2.54    0.49   -0.65   -0.29    0.00    0.00      -4.20   -1.03   -0.46
#  21   -5.85   -1.76    0.34   -2.61    0.89    0.00    0.00      -9.00   -5.33    1.81
#  22   -0.20   -0.60    0.03    0.11   -0.13    0.00    0.00      -0.79    0.31   -0.37
#  23    0.04   -0.66    0.07    0.22   -0.14    0.00    0.00      -0.47    0.68   -0.43
#  24   -2.19   -0.39    0.15    1.26   -0.08    0.00    0.00      -1.25    4.25   -0.28
#  25   -2.59   -0.24    0.03    1.26   -0.07    0.00    0.00      -1.61    4.90   -0.28
#  26   -3.46   -0.57    0.28    1.00   -0.06    0.00    0.00      -2.80    2.56   -0.15
#  27   -3.17   -0.48    0.15    2.65   -0.12    0.00    0.00      -0.98    6.11   -0.28
#  28   -2.54   -0.74    0.66    1.73   -0.13    0.00    0.00      -1.01    3.82   -0.28
#  29   -0.64   -0.37    0.11    0.74   -0.07    0.00    0.00      -0.23    2.33   -0.21
#  30   -0.35   -0.35    0.09    0.83   -0.10    0.00    0.00       0.12    2.31   -0.28
#  31    0.01   -0.44    0.12    0.53   -0.10    0.00    0.00       0.12    1.48   -0.28
#  32    0.25   -0.66    0.54    0.70   -0.12    0.00    0.00       0.72    1.67   -0.28
#  33    2.29   -0.10    0.01    2.64    0.34    0.00    0.00       5.17    4.64    0.59
#  34    3.35   -0.13    0.01    2.56    0.37    0.00    0.00       6.16    4.03    0.59
#  35    4.54   -0.07    0.00    2.24    0.30    0.00    0.00       7.02    4.38    0.59
#  36    1.49   -0.80    0.91    0.25   -0.12    0.00    0.00       1.74    0.50   -0.23
#  37    1.31   -0.40    0.06    0.50   -0.13    0.00    0.00       1.35    1.06   -0.28
#  38    0.66   -1.47    1.73    0.67   -0.17    0.00    0.00       1.41    1.07   -0.28
#  39    0.59   -2.00    3.63    0.82   -0.19    0.00    0.00       2.85    1.23   -0.28
#  40    1.03   -0.62    0.34    0.67   -0.14    0.00    0.00       1.28    1.35   -0.28
#  41   -0.62   -0.24    0.02    0.50   -0.05    0.00    0.00      -0.39    1.95   -0.21
#  42   -0.88   -0.20    0.03    0.08   -0.04    0.00    0.00      -1.02    0.46   -0.21
#  43   -1.93   -0.28    0.06    0.91   -0.08    0.00    0.00      -1.33    3.32   -0.28
#  44   -1.99   -0.15    0.01    0.69   -0.04    0.00    0.00      -1.48    4.93   -0.28
@<TRIPOS>MOLECULE
E1492998
   44    46     0     0     0
SMALL
USER_CHARGES


@<TRIPOS>ATOM
      1 C1         22.8088   20.3973   60.7808 C.3       1            -0.0580
      2 N1         22.9842   19.1459   60.0317 N.4       1            -0.3850
      3 H1         23.1791   19.3575   59.0645 H         1             0.4304
      4 C2         21.7549   18.3466   60.1195 C.3       1            -0.0024
      5 C3         21.4489   18.0410   61.5874 C.3       1             0.0269
      6 N2         22.5759   17.3045   62.1768 N.3       1            -0.5307
      7 C4         22.2957   16.9423   63.5726 C.3       1             0.1285
      8 C5         21.4136   15.7209   63.6074 C.ar      1             0.4278
      9 N3         21.9568   14.5164   63.6408 N.ar      1            -0.6154
     10 C6         21.1810   13.4353   63.6721 C.ar      1             0.6332
     11 N4         21.7490   12.1782   63.7075 N.pl3     1            -0.7980
     12 N5         19.8590   13.5682   63.6699 N.ar      1            -0.6333
     13 C7         19.3169   14.7805   63.6363 C.ar      1             0.6319
     14 N6         17.9429   14.9238   63.6337 N.pl3     1            -0.6241
     15 C8         17.2488   15.0304   64.8429 C.ar      1             0.1478
     16 C9         15.8667   15.1689   64.8423 C.ar      1            -0.1077
     17 C10        15.1843   15.2741   66.0383 C.ar      1            -0.1019
     18 C11        15.8755   15.2420   67.2356 C.ar      1            -0.1266
     19 C12        17.2514   15.1042   67.2398 C.ar      1            -0.0982
     20 C13        17.9394   14.9925   66.0474 C.ar      1            -0.1393
     21 N7         20.0993   15.8572   63.6102 N.ar      1            -0.6369
     22 C14        23.8188   18.0821   62.0737 C.3       1             0.0224
     23 C15        24.1051   18.3871   60.6021 C.3       1            -0.0026
     24 H2         22.5983   20.1689   61.8255 H         1             0.1256
     25 H3         23.7208   20.9908   60.7152 H         1             0.1267
     26 H4         21.9774   20.9608   60.3572 H         1             0.1207
     27 H5         20.9265   18.9054   59.6843 H         1             0.1386
     28 H6         21.8892   17.4124   59.5743 H         1             0.1394
     29 H7         21.3009   18.9747   62.1301 H         1             0.0660
     30 H8         20.5449   17.4353   61.6520 H         1             0.1276
     31 H9         23.2323   16.7290   64.0877 H         1             0.0793
     32 H10        21.7891   17.7704   64.0682 H         1             0.1190
     33 H11        22.7142   12.0820   63.7094 H         1             0.4218
     34 H12        21.1831   11.3907   63.7302 H         1             0.4214
     35 H13        17.4597   14.9505   62.7931 H         1             0.4262
     36 H14        15.3265   15.1947   63.9075 H         1             0.1261
     37 H15        14.1098   15.3817   66.0385 H         1             0.1266
     38 H16        15.3395   15.3252   68.1696 H         1             0.1267
     39 H17        17.7883   15.0800   68.1767 H         1             0.1298
     40 H18        19.0136   14.8805   66.0515 H         1             0.1261
     41 H19        23.7100   19.0163   62.6244 H         1             0.0687
     42 H20        24.6438   17.5063   62.4931 H         1             0.1223
     43 H21        24.2274   17.4527   60.0544 H         1             0.1365
     44 H22        25.0191   18.9759   60.5247 H         1             0.1359
@<TRIPOS>BOND
     1    1    2 1 
     2    1   24 1 
     3    1   25 1 
     4    1   26 1 
     5    2    3 1 
     6    2   23 1 
     7    2    4 1 
     8    4    5 1 
     9    4   27 1 
    10    4   28 1 
    11    5    6 1 
    12    5   29 1 
    13    5   30 1 
    14    6    7 1 
    15    6   22 1 
    16    7    8 1 
    17    7   31 1 
    18    7   32 1 
    19    8   21 ar
    20    8    9 ar
    21    9   10 ar
    22   10   11 1 
    23   10   12 ar
    24   11   33 1 
    25   11   34 1 
    26   12   13 ar
    27   13   14 1 
    28   13   21 ar
    29   14   15 1 
    30   14   35 1 
    31   15   20 ar
    32   15   16 ar
    33   16   17 ar
    34   16   36 1 
    35   17   18 ar
    36   17   37 1 
    37   18   19 ar
    38   18   38 1 
    39   19   20 ar
    40   19   39 1 
    41   20   40 1 
    42   22   23 1 
    43   22   41 1 
    44   22   42 1 
    45   23   43 1 
    46   23   44 1 
##########                 Name:            E42893140
##########          Protonation:                   78
##########               SMILES:   c1cncc(c1)C[NH+]2CC[C@@H](CC2)Oc3ccc(cc3)F
##########            Long Name:   3-[[4-(4-fluorophenoxy)piperidin-1-ium-1-yl]methyl]pyridine
##########          FlexRecCode: 1
##########               Number:                  165
##########   Ligand Source File: /raidb/db2/rgc/leads-emolecules-300/leads-emolecules-2b-0000131.db2.gz
##########           GlobalRank: 643
##########                 Rank:                    1
##########               Setnum:                  118
##########             Matchnum:                 2622
##########                Cloud:                    1
##########        Electrostatic:           -23.790861
##########        Van der Waals:           -25.126776
##########  Ligand Polar Desolv:             8.226611
########## Ligand Apolar Desolv:            -3.186000
##########      Internal Energy:             0.000000
##########      Receptor Energy: 0.0
########## Receptor Desolvation:             0.000000
########## Receptor Hydrophobic:             0.000000
##########         Total Energy: -43.88
##########        Ligand Charge:             1.000000
##########            Arbitrary:    +999.9990
##########     heavy atom count:   21
##########           pose count:    1
##########        Ligand Energy:             0.000000
# num electro vdwattr vdwrepu polsolv apolsol rdesolv rhydroe totalscore fullpol fullapo
#   1   -0.77   -2.26    0.96   -0.43   -0.32    0.00    0.00      -2.81   -0.66   -0.48
#   2    0.25   -2.12    0.46   -0.21   -0.20    0.00    0.00      -1.82   -0.35   -0.34
#   3   -0.55   -1.64    0.26   -0.82   -0.28    0.00    0.00      -3.01   -1.40   -0.47
#   4   -1.09   -1.73    0.42   -1.19   -0.18    0.00    0.00      -3.78   -2.57   -0.39
#   5    0.16   -1.60    0.32    1.05   -0.13    0.00    0.00      -0.20    2.44   -0.31
#   6    0.35   -1.40    0.21   -2.76    0.35    0.00    0.00      -3.26   -6.16    0.77
#   7   -0.53   -0.74    0.05    0.46   -0.04    0.00    0.00      -0.79    1.08   -0.09
#   8    1.80   -0.72    0.11   -1.70   -0.08    0.00    0.00      -0.58   -4.89   -0.22
#   9    0.05   -1.24    0.36    0.16   -0.15    0.00    0.00      -0.82    0.40   -0.37
#  10    9.05   -1.45    0.70   -4.34    0.10    0.00    0.00       4.06  -11.73    0.27
#  11  -15.02   -0.10    0.02    5.51    0.19    0.00    0.00      -9.39   15.67    0.54
#  12   -0.75   -0.55    0.06    0.60   -0.10    0.00    0.00      -0.74    2.18   -0.36
#  13    2.76   -1.07    0.29   -1.00   -0.09    0.00    0.00       0.90   -3.87   -0.33
#  14   -1.44   -1.83    1.25    0.54   -0.27    0.00    0.00      -1.74    1.92   -0.95
#  15    1.10   -1.65    0.41   -2.45    0.66    0.00    0.00      -1.93   -7.61    2.05
#  16   -0.06   -1.28    0.21    0.18   -0.32    0.00    0.00      -1.27    0.55   -0.98
#  17    0.34   -1.03    0.13   -0.97   -0.14    0.00    0.00      -1.66   -3.31   -0.48
#  18    0.38   -0.80    0.07   -0.28   -0.10    0.00    0.00      -0.73   -1.02   -0.37
#  19    0.24   -1.06    0.20   -0.02   -0.14    0.00    0.00      -0.79   -0.06   -0.35
#  20    1.76   -1.27    0.36   -1.46   -0.10    0.00    0.00      -0.72   -3.50   -0.24
#  21    0.06   -1.59    0.33   -0.78   -0.20    0.00    0.00      -2.19   -1.79   -0.46
#  22   -0.01   -2.11    0.59   -0.65   -0.24    0.00    0.00      -2.42   -1.29   -0.47
#  23    0.81   -0.31    0.03    0.61   -0.12    0.00    0.00       1.03    1.47   -0.28
#  24    1.76   -0.43    0.14    1.37   -0.07    0.00    0.00       2.78    3.84   -0.19
#  25   -0.76   -0.25    0.03    0.50   -0.06    0.00    0.00      -0.54    1.76   -0.21
#  26   -1.06   -0.14    0.01    0.29   -0.03    0.00    0.00      -0.94    2.21   -0.23
#  27   -0.82   -0.44    0.38    1.15   -0.07    0.00    0.00       0.18    4.47   -0.28
#  28   -2.75   -0.59    0.36    1.46   -0.09    0.00    0.00      -1.61    4.03   -0.26
#  29   -3.08   -0.51    0.17    2.72   -0.12    0.00    0.00      -0.82    6.32   -0.28
#  30   -1.71   -0.13    0.01    0.71   -0.03    0.00    0.00      -1.15    5.74   -0.28
#  31   -1.50   -0.14    0.01    0.89   -0.04    0.00    0.00      -0.78    6.59   -0.28
#  32   -1.78   -0.39    0.26    1.10   -0.06    0.00    0.00      -0.87    4.90   -0.28
#  33    0.01   -0.26    0.05    0.33   -0.07    0.00    0.00       0.05    1.31   -0.28
#  34   -0.06   -0.24    0.07    0.49   -0.06    0.00    0.00       0.20    2.40   -0.28
#  35   -1.05   -0.12    0.00    0.71   -0.04    0.00    0.00      -0.49    5.36   -0.28
#  36   -3.33   -0.46    0.26    1.45   -0.09    0.00    0.00      -2.18    4.38   -0.26
#  37   -3.14   -0.36    0.07    1.42   -0.07    0.00    0.00      -2.08    3.92   -0.20
#  38   -1.35   -1.01    1.00    1.79   -0.12    0.00    0.00       0.31    4.10   -0.28
#  39   -1.23   -0.37    0.07    0.62   -0.08    0.00    0.00      -1.00    2.06   -0.28
#  40   -0.34   -0.25    0.03    0.68   -0.07    0.00    0.00       0.05    2.70   -0.28
#  41   -0.50   -0.62    0.40    0.51   -0.12    0.00    0.00      -0.32    1.19   -0.28
@<TRIPOS>MOLECULE
E42893140
   41    43     0     0     0
SMALL
USER_CHARGES


@<TRIPOS>ATOM
      1 F1         21.3116   12.1184   63.6490 F         1            -0.1321
      2 C1         21.5662   13.4443   63.5975 C.ar      1             0.0774
      3 C2         20.5280   14.3529   63.7144 C.ar      1            -0.1124
      4 C3         20.7868   15.7089   63.6620 C.ar      1            -0.1798
      5 C4         22.0875   16.1600   63.4919 C.ar      1             0.1043
      6 O1         22.3436   17.4941   63.4405 O.3       1            -0.3085
      7 C5         22.3070   18.1127   62.1528 C.3       1             0.0682
      8 C6         23.3598   17.4715   61.2450 C.3       1            -0.1740
      9 C7         23.3521   18.1816   59.8898 C.3       1            -0.0023
     10 N1         23.6644   19.6043   60.0736 N.4       1            -0.3820
     11 H1         23.6994   20.0579   59.1730 H         1             0.4210
     12 C8         24.9694   19.7346   60.7354 C.3       1             0.0507
     13 C9         26.0319   19.0917   59.8818 C.ar      1            -0.2187
     14 C10        26.7089   19.8323   58.9311 C.ar      1             0.1321
     15 N2         27.6401   19.2768   58.1809 N.ar      1            -0.4749
     16 C11        27.9623   18.0039   58.3043 C.ar      1             0.1381
     17 C12        27.3282   17.2013   59.2335 C.ar      1            -0.1657
     18 C13        26.3469   17.7515   60.0441 C.ar      1            -0.0496
     19 C14        22.6345   20.2445   60.9011 C.3       1            -0.0109
     20 C15        22.6176   19.6054   62.2913 C.3       1            -0.1361
     21 C16        23.1265   15.2486   63.3748 C.ar      1            -0.1146
     22 C17        22.8656   13.8933   63.4334 C.ar      1            -0.1111
     23 H2         19.5154   14.0014   63.8465 H         1             0.1435
     24 H3         19.9768   16.4175   63.7529 H         1             0.1376
     25 H4         21.3174   17.9845   61.7139 H         1             0.1049
     26 H5         24.3443   17.5699   61.7025 H         1             0.1198
     27 H6         23.1263   16.4161   61.1049 H         1             0.1056
     28 H7         24.0990   17.7277   59.2385 H         1             0.1354
     29 H8         22.3667   18.0827   59.4343 H         1             0.1349
     30 H9         25.2032   20.7904   60.8729 H         1             0.1386
     31 H10        24.9353   19.2406   61.7065 H         1             0.1418
     32 H11        26.4721   20.8779   58.8010 H         1             0.1626
     33 H12        28.7302   17.5839   57.6718 H         1             0.1710
     34 H13        27.5963   16.1595   59.3297 H         1             0.1513
     35 H14        25.8376   17.1493   60.7821 H         1             0.1447
     36 H15        22.8537   21.3081   60.9939 H         1             0.1372
     37 H16        21.6598   20.1153   60.4309 H         1             0.1302
     38 H17        21.8511   20.0821   62.9023 H         1             0.1078
     39 H18        23.5920   19.7327   62.7630 H         1             0.1228
     40 H19        24.1396   15.5985   63.2420 H         1             0.1427
     41 H20        23.6751   13.1835   63.3471 H         1             0.1485
@<TRIPOS>BOND
     1    1    2 1 
     2    2   22 ar
     3    2    3 ar
     4    3    4 ar
     5    3   23 1 
     6    4    5 ar
     7    4   24 1 
     8    5    6 1 
     9    5   21 ar
    10    6    7 1 
    11    7   20 1 
    12    7    8 1 
    13    7   25 1 
    14    8    9 1 
    15    8   26 1 
    16    8   27 1 
    17    9   10 1 
    18    9   28 1 
    19    9   29 1 
    20   10   11 1 
    21   10   12 1 
    22   10   19 1 
    23   12   13 1 
    24   12   30 1 
    25   12   31 1 
    26   13   18 ar
    27   13   14 ar
    28   14   15 ar
    29   14   32 1 
    30   15   16 ar
    31   16   17 ar
    32   16   33 1 
    33   17   18 ar
    34   17   34 1 
    35   18   35 1 
    36   19   20 1 
    37   19   36 1 
    38   19   37 1 
    39   20   38 1 
    40   20   39 1 
    41   21   22 ar
    42   21   40 1 
    43   22   41 1 
##########                 Name:            E23806703
##########          Protonation:                   98
##########               SMILES:   c1ccc(cc1)C[NH+]2CC[C@H](C2)CNC(=O)c3ccnnc3
##########            Long Name:   N-[[(3S)-1-benzylpyrrolidin-1-ium-3-yl]methyl]pyridazine-4-carboxamide
##########          FlexRecCode: 1
##########               Number:                  627
##########   Ligand Source File: /raidb/db2/rgc/leads-emolecules-300/leads-emolecules-2h-0000182.db2.gz
##########           GlobalRank: 669
##########                 Rank:                    1
##########               Setnum:                  133
##########             Matchnum:                 5132
##########                Cloud:                    1
##########        Electrostatic:           -25.504269
##########        Van der Waals:           -25.378523
##########  Ligand Polar Desolv:             8.858177
########## Ligand Apolar Desolv:            -1.773248
##########      Internal Energy:             0.000000
##########      Receptor Energy: 0.0
########## Receptor Desolvation:             0.000000
########## Receptor Hydrophobic:             0.000000
##########         Total Energy: -43.8
##########        Ligand Charge:             1.000000
##########            Arbitrary:    +999.9990
##########     heavy atom count:   22
##########           pose count:    1
##########        Ligand Energy:             0.000000
# num electro vdwattr vdwrepu polsolv apolsol rdesolv rhydroe totalscore fullpol fullapo
#   1   -5.05   -2.51    1.39   -2.26    0.19    0.00    0.00      -8.24   -4.83    0.40
#   2    1.62   -1.61    0.34    3.14   -0.29    0.00    0.00       3.21    7.24   -0.66
#   3    1.99   -1.20    0.12   -5.45    0.94    0.00    0.00      -3.60  -13.27    2.29
#   4   -0.90   -0.85    0.07    1.05   -0.16    0.00    0.00      -0.79    2.53   -0.38
#   5    1.80   -0.66    0.04   -1.26   -0.08    0.00    0.00      -0.16   -3.08   -0.19
#   6    2.01   -0.64    0.06   -1.36   -0.08    0.00    0.00      -0.01   -4.21   -0.26
#   7    0.22   -0.52    0.05   -0.06   -0.12    0.00    0.00      -0.43   -0.21   -0.45
#   8    8.31   -1.21    0.43   -3.99    0.15    0.00    0.00       3.69  -12.10    0.45
#   9  -14.08   -0.08    0.02    5.06    0.17    0.00    0.00      -8.91   16.31    0.56
#  10   -0.66   -0.71    0.10    0.58   -0.10    0.00    0.00      -0.79    1.96   -0.33
#  11    1.40   -0.84    0.12   -0.72   -0.09    0.00    0.00      -0.12   -2.80   -0.34
#  12    0.37   -0.49    0.02   -0.37   -0.07    0.00    0.00      -0.54   -2.03   -0.40
#  13    0.06   -0.63    0.05   -0.58   -0.10    0.00    0.00      -1.20   -2.63   -0.47
#  14    0.04   -1.70    0.94   -0.68   -0.15    0.00    0.00      -1.55   -2.18   -0.47
#  15    0.43   -1.92    1.20   -0.96   -0.17    0.00    0.00      -1.42   -2.66   -0.47
#  16    0.51   -1.44    0.40   -0.65   -0.15    0.00    0.00      -1.32   -2.00   -0.45
#  17    0.06   -0.98    0.16    0.19   -0.18    0.00    0.00      -0.75    0.47   -0.44
#  18   -0.44   -1.68    0.44   -0.79   -0.21    0.00    0.00      -2.68   -1.56   -0.41
#  19   -0.23   -1.72    0.31   -0.39   -0.27    0.00    0.00      -2.29   -0.65   -0.45
#  20    0.15   -2.66    0.56    0.16   -0.64    0.00    0.00      -2.44    0.25   -0.99
#  21   -1.43   -5.00    3.63   -0.90    0.77    0.00    0.00      -2.93   -1.38    1.18
#  22   -0.62   -3.66    1.77   -1.14    0.67    0.00    0.00      -2.98   -1.98    1.17
#  23    0.07   -2.07    0.62    0.55   -0.48    0.00    0.00      -1.30    1.08   -0.94
#  24   -1.59   -0.01    0.00    2.04    0.09    0.00    0.00       0.53    9.97    0.44
#  25   -0.46   -0.41    0.10    0.55   -0.10    0.00    0.00      -0.33    1.48   -0.28
#  26   -0.56   -0.33    0.04    0.53   -0.09    0.00    0.00      -0.41    1.57   -0.27
#  27   -1.85   -0.25    0.02    1.34   -0.09    0.00    0.00      -0.82    4.40   -0.28
#  28   -0.97   -0.14    0.01    0.32   -0.04    0.00    0.00      -0.82    2.29   -0.27
#  29   -2.14   -0.38    0.11    0.89   -0.09    0.00    0.00      -1.61    2.89   -0.28
#  30   -1.23   -0.15    0.01    0.58   -0.03    0.00    0.00      -0.82    3.91   -0.18
#  31   -1.61   -0.14    0.01    0.59   -0.04    0.00    0.00      -1.18    4.66   -0.28
#  32   -2.64   -0.33    0.09    1.65   -0.08    0.00    0.00      -1.30    6.12   -0.28
#  33   -1.19   -0.22    0.04    0.99   -0.05    0.00    0.00      -0.43    5.31   -0.27
#  34   -0.35   -0.07    0.00    0.26   -0.01    0.00    0.00      -0.16    4.41   -0.24
#  35    0.11   -0.09    0.00    0.14   -0.03    0.00    0.00       0.14    1.51   -0.28
#  36    0.14   -0.62    0.79    0.23   -0.08    0.00    0.00       0.45    0.80   -0.28
#  37   -0.48   -0.49    0.30    0.49   -0.09    0.00    0.00      -0.27    1.47   -0.28
#  38   -0.83   -0.48    0.20    1.41   -0.09    0.00    0.00       0.22    4.57   -0.28
#  39   -3.80   -0.44    0.14    2.39   -0.10    0.00    0.00      -1.81    6.41   -0.28
#  40   -2.78   -0.68    0.90    1.66   -0.09    0.00    0.00      -0.99    5.18   -0.27
#  41    1.15   -0.30    0.03    0.66   -0.10    0.00    0.00       1.44    1.78   -0.27
#  42   -0.03   -0.76    0.34    1.35   -0.17    0.00    0.00       0.72    2.19   -0.28
#  43   -0.07   -0.36    0.08    1.59   -0.07    0.00    0.00       1.18    4.84   -0.22
@<TRIPOS>MOLECULE
E23806703
   43    45     0     0     0
SMALL
USER_CHARGES


@<TRIPOS>ATOM
      1 O1         20.5695   16.9307   63.6664 O.2       1            -0.5104
      2 C1         21.5449   16.2799   63.3472 C.2       1             0.5715
      3 N1         22.6214   16.8945   62.8183 N.am      1            -0.7279
      4 C2         22.6158   18.3471   62.6283 C.3       1             0.1300
      5 C3         22.8047   18.6681   61.1443 C.3       1            -0.1227
      6 C4         24.1833   18.2059   60.6696 C.3       1            -0.1406
      7 C5         25.0153   19.4930   60.8410 C.3       1            -0.0158
      8 N2         24.0812   20.5023   60.3020 N.4       1            -0.3875
      9 H1         24.0180   20.4256   59.2979 H         1             0.4274
     10 C6         24.5040   21.8548   60.6894 C.3       1             0.0461
     11 C7         25.6131   22.3146   59.7785 C.ar      1            -0.1631
     12 C8         26.9303   22.0532   60.1068 C.ar      1            -0.0970
     13 C9         27.9475   22.4750   59.2714 C.ar      1            -0.1127
     14 C10        27.6478   23.1578   58.1075 C.ar      1            -0.0833
     15 C11        26.3306   23.4184   57.7787 C.ar      1            -0.1124
     16 C12        25.3131   22.9928   58.6119 C.ar      1            -0.0936
     17 C13        22.8022   20.1694   60.9228 C.3       1            -0.0029
     18 C14        21.5528   14.8118   63.5450 C.ar      1            -0.1446
     19 C15        20.3617   14.0740   63.5443 C.ar      1            -0.0500
     20 C16        20.4491   12.7050   63.7355 C.ar      1             0.0466
     21 N3         21.6274   12.1380   63.9104 N.ar      1            -0.2161
     22 N4         22.7215   12.8077   63.9122 N.ar      1            -0.2366
     23 C17        22.7490   14.1144   63.7330 C.ar      1             0.0671
     24 H2         23.3998   16.3750   62.5633 H         1             0.4042
     25 H3         21.6644   18.7546   62.9699 H         1             0.0874
     26 H4         23.4286   18.7918   63.2026 H         1             0.0849
     27 H5         22.0217   18.1948   60.5519 H         1             0.1172
     28 H6         24.5666   17.4057   61.3028 H         1             0.1038
     29 H7         24.1533   17.8963   59.6251 H         1             0.1146
     30 H8         25.2342   19.6820   61.8920 H         1             0.1337
     31 H9         25.9307   19.4502   60.2508 H         1             0.1325
     32 H10        23.6586   22.5376   60.6058 H         1             0.1375
     33 H11        24.8610   21.8429   61.7193 H         1             0.1357
     34 H12        27.1644   21.5197   61.0162 H         1             0.1297
     35 H13        28.9765   22.2713   59.5282 H         1             0.1364
     36 H14        28.4426   23.4879   57.4551 H         1             0.1365
     37 H15        26.0964   23.9521   56.8694 H         1             0.1366
     38 H16        24.2839   23.1931   58.3534 H         1             0.1314
     39 H17        21.9817   20.4486   60.2617 H         1             0.1422
     40 H18        22.7029   20.6881   61.8763 H         1             0.1389
     41 H19        19.4067   14.5570   63.3998 H         1             0.1673
     42 H20        19.5531   12.1021   63.7419 H         1             0.1878
     43 H21        23.6908   14.6431   63.7359 H         1             0.1703
@<TRIPOS>BOND
     1    1    2 2 
     2    2    3 am
     3    2   18 1 
     4    3    4 1 
     5    3   24 1 
     6    4    5 1 
     7    4   25 1 
     8    4   26 1 
     9    5   17 1 
    10    5    6 1 
    11    5   27 1 
    12    6    7 1 
    13    6   28 1 
    14    6   29 1 
    15    7    8 1 
    16    7   30 1 
    17    7   31 1 
    18    8    9 1 
    19    8   10 1 
    20    8   17 1 
    21   10   11 1 
    22   10   32 1 
    23   10   33 1 
    24   11   16 ar
    25   11   12 ar
    26   12   13 ar
    27   12   34 1 
    28   13   14 ar
    29   13   35 1 
    30   14   15 ar
    31   14   36 1 
    32   15   16 ar
    33   15   37 1 
    34   16   38 1 
    35   17   39 1 
    36   17   40 1 
    37   18   23 ar
    38   18   19 ar
    39   19   20 ar
    40   19   41 1 
    41   20   21 ar
    42   20   42 1 
    43   21   22 ar
    44   22   23 ar
    45   23   43 1 
##########                 Name:             E3987977
##########          Protonation:                   14
##########               SMILES:   Cc1ccc(cc1)[C@@H]2CC(=CC(=O)C2)NCCc3c[nH]c[nH+]3
##########            Long Name:   (5R)-3-[2-(1H-imidazol-3-ium-4-yl)ethylamino]-5-(p-tolyl)cyclohex-2-en-1-one
##########          FlexRecCode: 1
##########               Number:                  191
##########   Ligand Source File: /raidb/db2/rgc/leads-emolecules-300/leads-emolecules-2g-0000432.db2.gz
##########           GlobalRank: 700
##########                 Rank:                    1
##########               Setnum:                  134
##########             Matchnum:                 6109
##########                Cloud:                    1
##########        Electrostatic:           -17.695614
##########        Van der Waals:           -31.326595
##########  Ligand Polar Desolv:            10.151815
########## Ligand Apolar Desolv:            -4.849635
##########      Internal Energy:             0.000000
##########      Receptor Energy: 0.0
########## Receptor Desolvation:             0.000000
########## Receptor Hydrophobic:             0.000000
##########         Total Energy: -43.72
##########        Ligand Charge:             1.000000
##########            Arbitrary:    +999.9990
##########     heavy atom count:   22
##########           pose count:    1
##########        Ligand Energy:             0.000000
# num electro vdwattr vdwrepu polsolv apolsol rdesolv rhydroe totalscore fullpol fullapo
#   1   -1.34   -1.44    0.25   -0.46   -0.13    0.00    0.00      -3.12   -0.70   -0.20
#   2   -1.02   -2.45    0.81   -0.42   -0.26    0.00    0.00      -3.34   -0.66   -0.41
#   3   -1.61   -3.02    1.19   -0.52   -0.27    0.00    0.00      -4.22   -0.87   -0.45
#   4   -1.55   -2.67    0.83   -0.53   -0.27    0.00    0.00      -4.19   -0.90   -0.45
#   5   -1.06   -2.22    0.60   -0.45   -0.21    0.00    0.00      -3.34   -0.71   -0.33
#   6   -0.79   -2.74    0.65   -0.61   -0.26    0.00    0.00      -3.75   -0.94   -0.40
#   7   -1.01   -2.88    0.82   -0.61   -0.29    0.00    0.00      -3.97   -0.95   -0.45
#   8   -0.26   -1.25    0.22   -0.06   -0.09    0.00    0.00      -1.44   -0.11   -0.15
#   9   -0.69   -1.87    1.02   -0.59   -0.14    0.00    0.00      -2.27   -0.98   -0.23
#  10    1.46   -2.23    0.39    0.79   -0.19    0.00    0.00       0.20    1.25   -0.31
#  11   -2.38   -4.16    1.90    1.19    0.30    0.00    0.00      -3.15    1.78    0.44
#  12   -1.09   -1.89    0.74   -2.46   -0.24    0.00    0.00      -4.94   -4.33   -0.43
#  13    1.13   -1.63    0.45    2.45   -0.34    0.00    0.00       2.07    5.16   -0.71
#  14   -1.08   -1.19    0.23   -0.76   -0.11    0.00    0.00      -2.91   -1.46   -0.21
#  15   -0.40   -1.43    0.27   -5.59    0.69    0.00    0.00      -6.46  -13.28    1.63
#  16   -0.03   -1.29    0.51    0.92   -0.16    0.00    0.00      -0.06    2.05   -0.36
#  17    0.52   -1.12    0.15   -0.57   -0.11    0.00    0.00      -1.12   -1.32   -0.25
#  18   -0.34   -0.90    0.04   -0.12   -0.26    0.00    0.00      -1.57   -0.31   -0.69
#  19   -0.81   -1.15    0.13    0.27   -0.38    0.00    0.00      -1.93    0.73   -1.01
#  20   10.00   -1.80    0.71   -5.34    0.42    0.00    0.00       3.98  -15.63    1.22
#  21   -3.32   -0.89    0.08    3.27   -0.99    0.00    0.00      -1.85   10.99   -3.33
#  22    4.11   -0.81    0.05   -4.26    0.33    0.00    0.00      -0.58  -14.50    1.11
#  23   -2.97   -0.01    0.00    2.50    0.10    0.00    0.00      -0.39   15.11    0.59
#  24    0.74   -0.53    0.25    0.17   -0.14    0.00    0.00       0.49    0.36   -0.28
#  25    0.60   -0.41    0.07    0.21   -0.13    0.00    0.00       0.33    0.45   -0.28
#  26    0.88   -0.52    0.11    0.29   -0.16    0.00    0.00       0.59    0.51   -0.28
#  27    0.86   -1.07    1.59    0.45   -0.16    0.00    0.00       1.67    0.80   -0.28
#  28    1.63   -0.62    0.22    0.67   -0.15    0.00    0.00       1.77    1.29   -0.28
#  29    0.32   -0.67    0.14    1.04   -0.15    0.00    0.00       0.69    1.71   -0.24
#  30    0.58   -0.71    0.19    0.59   -0.16    0.00    0.00       0.49    1.01   -0.28
#  31    0.73   -0.62    0.48    0.42   -0.12    0.00    0.00       0.89    0.96   -0.27
#  32    0.06   -0.89    0.62    0.02   -0.15    0.00    0.00      -0.35    0.03   -0.28
#  33    0.54   -1.04    2.22    0.42   -0.13    0.00    0.00       2.00    0.81   -0.25
#  34    0.05   -0.36    0.10    0.43   -0.08    0.00    0.00       0.14    1.09   -0.21
#  35    1.05   -0.40    0.08    0.86   -0.11    0.00    0.00       1.48    2.00   -0.25
#  36    1.81   -0.76    0.81    1.01   -0.11    0.00    0.00       2.76    2.48   -0.28
#  37   -0.89   -0.02    0.00    2.27    0.13    0.00    0.00       1.50    9.98    0.57
#  38   -0.33   -0.35    0.15    0.48   -0.09    0.00    0.00      -0.14    1.51   -0.27
#  39    0.59   -1.05    1.88    0.60   -0.11    0.00    0.00       1.91    1.43   -0.27
#  40   -1.18   -0.61    0.26    1.31   -0.11    0.00    0.00      -0.32    3.34   -0.28
#  41   -0.45   -0.49    0.09    1.51   -0.12    0.00    0.00       0.54    3.50   -0.28
#  42   -5.51   -0.29    0.04    2.06   -0.09    0.00    0.00      -3.79    6.64   -0.28
#  43  -13.33   -0.09    0.01    5.10    0.20    0.00    0.00      -8.11   14.88    0.59
#  44   -1.90   -0.15    0.01    2.18   -0.05    0.00    0.00       0.09   12.16   -0.28
@<TRIPOS>MOLECULE
E3987977
   44    46     0     0     0
SMALL
USER_CHARGES


@<TRIPOS>ATOM
      1 C1         13.4160   15.9281   65.7220 C.3       1            -0.1205
      2 C2         14.8668   15.6268   65.4474 C.ar      1            -0.0804
      3 C3         15.4072   15.9036   64.2055 C.ar      1            -0.1176
      4 C4         16.7380   15.6272   63.9536 C.ar      1            -0.1069
      5 C5         17.5285   15.0743   64.9437 C.ar      1            -0.0933
      6 C6         16.9884   14.7984   66.1858 C.ar      1            -0.1100
      7 C7         15.6587   15.0788   66.4391 C.ar      1            -0.1179
      8 C8         18.9791   14.7721   64.6687 C.3       1            -0.0295
      9 C9         19.1105   13.3519   64.1096 C.3       1            -0.1649
     10 C10        20.5530   13.0915   63.7603 C.2       1             0.4018
     11 O1         20.9894   11.9582   63.8096 O.2       1            -0.4907
     12 C11        21.3941   14.1420   63.3805 C.2       1            -0.3781
     13 C12        20.9511   15.4160   63.3114 C.2       1             0.2579
     14 C13        19.5226   15.7629   63.6353 C.3       1            -0.0955
     15 N1         21.8125   16.4048   62.9414 N.pl3     1            -0.7190
     16 C14        21.3457   17.7912   62.8621 C.3       1             0.1160
     17 C15        22.5460   18.7379   62.9244 C.3       1            -0.0756
     18 C16        23.4713   18.4525   61.7697 C.2       1             0.0307
     19 C17        23.4219   19.0307   60.5544 C.2       1             0.0431
     20 N2         24.4370   18.4861   59.8152 N.pl3     1            -0.5088
     21 C18        25.0721   17.5936   60.6050 C.cat     1             0.3122
     22 N3         24.4921   17.5825   61.7740 N.pl3     1            -0.4742
     23 H1         24.7564   17.0307   62.5266 H         1             0.4658
     24 H2         12.9577   16.3526   64.8288 H         1             0.0736
     25 H3         12.8988   15.0079   65.9933 H         1             0.0682
     26 H4         13.3421   16.6419   66.5425 H         1             0.0680
     27 H5         14.7895   16.3356   63.4320 H         1             0.1242
     28 H6         17.1599   15.8428   62.9831 H         1             0.1226
     29 H7         17.6059   14.3661   66.9593 H         1             0.1210
     30 H8         15.2376   14.8666   67.4107 H         1             0.1237
     31 H9         19.5513   14.8574   65.5925 H         1             0.0891
     32 H10        18.7816   12.6330   64.8601 H         1             0.0969
     33 H11        18.4954   13.2539   63.2153 H         1             0.0996
     34 H12        22.4244   13.9293   63.1365 H         1             0.1211
     35 H13        18.9202   15.7089   62.7284 H         1             0.1021
     36 H14        19.4776   16.7732   64.0418 H         1             0.0912
     37 H15        22.7347   16.1908   62.7305 H         1             0.4074
     38 H16        20.8123   17.9419   61.9235 H         1             0.0810
     39 H17        20.6764   17.9974   63.6974 H         1             0.0736
     40 H18        22.1987   19.7694   62.8654 H         1             0.1048
     41 H19        23.0792   18.5870   63.8632 H         1             0.1208
     42 H20        22.7165   19.7796   60.2261 H         1             0.2284
     43 H21        24.6589   18.7012   58.8957 H         1             0.4696
     44 H22        25.9216   16.9917   60.3180 H         1             0.2684
@<TRIPOS>BOND
     1    1    2 1 
     2    1   24 1 
     3    1   25 1 
     4    1   26 1 
     5    2    7 ar
     6    2    3 ar
     7    3    4 ar
     8    3   27 1 
     9    4    5 ar
    10    4   28 1 
    11    5    6 ar
    12    5    8 1 
    13    6    7 ar
    14    6   29 1 
    15    7   30 1 
    16    8   14 1 
    17    8    9 1 
    18    8   31 1 
    19    9   10 1 
    20    9   32 1 
    21    9   33 1 
    22   10   11 2 
    23   10   12 1 
    24   12   13 2 
    25   12   34 1 
    26   13   14 1 
    27   13   15 1 
    28   14   35 1 
    29   14   36 1 
    30   15   16 1 
    31   15   37 1 
    32   16   17 1 
    33   16   38 1 
    34   16   39 1 
    35   17   18 1 
    36   17   40 1 
    37   17   41 1 
    38   18   22 1 
    39   18   19 2 
    40   19   20 1 
    41   19   42 1 
    42   20   21 1 
    43   20   43 1 
    44   21   22 2 
    45   21   44 1 
    46   22   23 1 
##########                 Name:             E3237788
##########          Protonation:                   98
##########               SMILES:   COc1ccc(cc1)COC[C@H](C[NH2+]CCO)O
##########            Long Name:   2-hydroxyethyl-[(2S)-2-hydroxy-3-[(4-methoxyphenyl)methoxy]propyl]ammonium
##########          FlexRecCode: 1
##########               Number:                  110
##########   Ligand Source File: /raidb/db2/rgc/leads-emolecules-300/leads-emolecules-3-bn-0000014.db2.gz
##########           GlobalRank: 708
##########                 Rank:                    1
##########               Setnum:                  204
##########             Matchnum:                 7004
##########                Cloud:                    1
##########        Electrostatic:           -35.738243
##########        Van der Waals:           -19.617046
##########  Ligand Polar Desolv:            10.842433
########## Ligand Apolar Desolv:             0.808390
##########      Internal Energy:             0.000000
##########      Receptor Energy: 0.0
########## Receptor Desolvation:             0.000000
########## Receptor Hydrophobic:             0.000000
##########         Total Energy: -43.7
##########        Ligand Charge:             1.000000
##########            Arbitrary:    +999.9990
##########     heavy atom count:   18
##########           pose count:    1
##########        Ligand Energy:             0.000000
# num electro vdwattr vdwrepu polsolv apolsol rdesolv rhydroe totalscore fullpol fullapo
#   1    0.06   -2.19    1.15    0.04    0.02    0.00    0.00      -0.91    0.07    0.03
#   2   -1.14   -2.01    0.28   -0.52    0.59    0.00    0.00      -2.79   -0.82    0.93
#   3    0.48   -1.79    0.41    0.08   -0.18    0.00    0.00      -1.01    0.13   -0.31
#   4   -0.26   -2.02    0.60   -0.64   -0.22    0.00    0.00      -2.54   -1.28   -0.43
#   5   -0.02   -2.02    0.69   -0.25   -0.20    0.00    0.00      -1.81   -0.57   -0.46
#   6   -0.17   -1.94    0.55   -0.52   -0.17    0.00    0.00      -2.25   -1.17   -0.39
#   7   -0.27   -1.61    0.40    0.70   -0.06    0.00    0.00      -0.84    1.51   -0.12
#   8    2.69   -1.45    0.18   -2.56    0.54    0.00    0.00      -0.61   -5.87    1.23
#   9   -0.36   -0.68    0.04   -0.03   -0.05    0.00    0.00      -1.07   -0.07   -0.11
#  10   -1.81   -0.96    0.12    0.99   -0.07    0.00    0.00      -1.73    2.22   -0.15
#  11   11.25   -1.76    0.32   -6.76    0.81    0.00    0.00       3.85  -12.64    1.51
#  12    0.94   -1.04    0.23   -0.03   -0.14    0.00    0.00      -0.03   -0.07   -0.38
#  13   13.87   -3.13    3.69   -6.09    0.28    0.00    0.00       8.62  -15.84    0.73
#  14  -13.13   -0.10    0.01    6.49    0.24    0.00    0.00      -6.49   15.37    0.57
#  15  -16.77   -0.16    0.06    5.76    0.21    0.00    0.00     -10.90   13.46    0.50
#  16    0.06   -1.02    0.27    0.22   -0.14    0.00    0.00      -0.61    0.70   -0.43
#  17   -0.41   -0.53    0.06    0.15   -0.04    0.00    0.00      -0.77    0.57   -0.15
#  18    6.06   -2.39    3.20   -4.34    0.54    0.00    0.00       3.07  -13.78    1.71
#  19   -0.33   -2.09    0.82   -0.22   -0.21    0.00    0.00      -2.04   -0.48   -0.46
#  20   -0.93   -1.60    0.30   -0.42   -0.24    0.00    0.00      -2.88   -0.80   -0.46
#  21   -0.23   -1.26    1.40    0.60   -0.19    0.00    0.00       0.32    0.89   -0.28
#  22    0.21   -0.59    0.32    0.28   -0.13    0.00    0.00       0.08    0.56   -0.27
#  23    0.26   -0.68    0.40    0.30   -0.15    0.00    0.00       0.13    0.53   -0.27
#  24   -0.04   -0.49    0.14    0.49   -0.10    0.00    0.00       0.00    1.11   -0.22
#  25   -0.11   -0.47    0.22    0.59   -0.09    0.00    0.00       0.14    1.85   -0.28
#  26   -0.03   -1.11    0.84    0.59   -0.15    0.00    0.00       0.14    1.08   -0.28
#  27   -0.31   -0.50    0.18    0.44   -0.10    0.00    0.00      -0.29    1.26   -0.28
#  28   -0.73   -0.15    0.01    0.25   -0.04    0.00    0.00      -0.66    1.82   -0.28
#  29   -0.62   -0.24    0.04    0.61   -0.07    0.00    0.00      -0.29    2.34   -0.28
#  30   -3.59   -0.45    0.12    1.06   -0.11    0.00    0.00      -2.97    2.78   -0.28
#  31  -10.74   -0.06    0.00    4.12    0.52    0.00    0.00      -6.16    9.60    1.21
#  32   -2.80   -0.77    1.39    1.61   -0.08    0.00    0.00      -0.65    5.52   -0.28
#  33   -2.61   -0.18    0.02    1.16   -0.05    0.00    0.00      -1.66    6.70   -0.28
#  34   -1.90   -0.37    0.14    1.05   -0.07    0.00    0.00      -1.15    4.15   -0.28
#  35   -2.00   -0.38    0.23    1.56   -0.07    0.00    0.00      -0.66    6.58   -0.28
#  36   -0.41   -0.09    0.00    0.12   -0.02    0.00    0.00      -0.40    1.51   -0.28
#  37   -0.70   -0.11    0.00    0.28   -0.03    0.00    0.00      -0.55    2.50   -0.28
#  38  -12.05   -0.30    0.36    3.00    0.41    0.00    0.00      -8.59    9.03    1.24
#  39    1.70   -0.77    0.94    0.56   -0.10    0.00    0.00       2.33    1.52   -0.28
#  40    1.13   -0.27    0.02    0.15   -0.10    0.00    0.00       0.93    0.42   -0.28
@<TRIPOS>MOLECULE
E3237788
   40    40     0     0     0
SMALL
USER_CHARGES


@<TRIPOS>ATOM
      1 C1         19.3916   12.7100   63.4620 C.3       1             0.0248
      2 O1         20.8117   12.8200   63.5766 O.3       1            -0.3144
      3 C2         21.3301   14.0746   63.6421 C.ar      1             0.1427
      4 C3         22.7014   14.2551   63.7485 C.ar      1            -0.2121
      5 C4         23.2259   15.5315   63.8144 C.ar      1            -0.0554
      6 C5         22.3851   16.6284   63.7749 C.ar      1            -0.1426
      7 C6         22.9599   18.0197   63.8475 C.3       1             0.1121
      8 O2         22.3347   18.8453   62.8628 O.3       1            -0.3689
      9 C7         22.5117   18.3855   61.5214 C.3       1             0.0308
     10 C8         22.2636   19.5408   60.5495 C.3       1             0.0853
     11 O3         20.9292   20.0244   60.7151 O.3       1            -0.5436
     12 C9         23.2549   20.6704   60.8363 C.3       1            -0.0435
     13 N1         23.0168   21.7796   59.9031 N.4       1            -0.5022
     14 H1         23.1418   21.4550   58.9559 H         1             0.4286
     15 H2         22.0744   22.1211   60.0200 H         1             0.4400
     16 C10        23.9684   22.8643   60.1786 C.3       1            -0.0039
     17 C11        25.3972   22.3465   60.0014 C.3       1             0.0439
     18 O4         25.5743   21.8868   58.6600 O.3       1            -0.5817
     19 C12        21.0180   16.4511   63.6685 C.ar      1            -0.0548
     20 C13        20.4890   15.1770   63.5970 C.ar      1            -0.1546
     21 H3         19.1110   11.6576   63.4193 H         1             0.1051
     22 H4         18.9200   13.1769   64.3268 H         1             0.0575
     23 H5         19.0605   13.2116   62.5527 H         1             0.0583
     24 H6         23.3585   13.3986   63.7800 H         1             0.1324
     25 H7         24.2935   15.6725   63.8971 H         1             0.1250
     26 H8         22.7793   18.4361   64.8384 H         1             0.0622
     27 H9         24.0328   17.9798   63.6600 H         1             0.0613
     28 H10        23.5295   18.0166   61.3951 H         1             0.0642
     29 H11        21.8055   17.5807   61.3171 H         1             0.0686
     30 H12        22.3985   19.1901   59.5262 H         1             0.1318
     31 H13        20.7016   20.7592   60.1292 H         1             0.3886
     32 H14        23.1199   21.0211   61.8594 H         1             0.1381
     33 H15        24.2728   20.3014   60.7101 H         1             0.1450
     34 H16        23.7916   23.6874   59.4862 H         1             0.1386
     35 H17        23.8332   23.2150   61.2017 H         1             0.1450
     36 H18        26.1032   23.1514   60.2058 H         1             0.0971
     37 H19        25.5738   21.5235   60.6939 H         1             0.0734
     38 H20        24.9775   21.1689   58.4082 H         1             0.4112
     39 H21        20.3635   17.3097   63.6375 H         1             0.1300
     40 H22        19.4215   15.0392   63.5102 H         1             0.1357
@<TRIPOS>BOND
     1    1    2 1 
     2    1   21 1 
     3    1   22 1 
     4    1   23 1 
     5    2    3 1 
     6    3   20 ar
     7    3    4 ar
     8    4    5 ar
     9    4   24 1 
    10    5    6 ar
    11    5   25 1 
    12    6    7 1 
    13    6   19 ar
    14    7    8 1 
    15    7   26 1 
    16    7   27 1 
    17    8    9 1 
    18    9   10 1 
    19    9   28 1 
    20    9   29 1 
    21   10   11 1 
    22   10   12 1 
    23   10   30 1 
    24   11   31 1 
    25   12   13 1 
    26   12   32 1 
    27   12   33 1 
    28   13   14 1 
    29   13   15 1 
    30   13   16 1 
    31   16   17 1 
    32   16   34 1 
    33   16   35 1 
    34   17   18 1 
    35   17   36 1 
    36   17   37 1 
    37   18   38 1 
    38   19   20 ar
    39   19   39 1 
    40   20   40 1 
##########                 Name:            E46176862
##########          Protonation:                   47
##########               SMILES:   c1ccc(cc1)C[NH+]2C[C@@H]3CN(C[C@H]3C2)Cc4ccncc4
##########            Long Name:   yl-5-(4-pyridylmethyl)-2,3,3a,4,6,6a-hexahydro-1H-pyrrolo[3,4-c]pyrrol-2-ium
##########          FlexRecCode: 1
##########               Number:                  358
##########   Ligand Source File: /raidb/db2/rgc/leads-emolecules-300/leads-emolecules-2f-0000399.db2.gz
##########           GlobalRank: 739
##########                 Rank:                    1
##########               Setnum:                    8
##########             Matchnum:                 3711
##########                Cloud:                    1
##########        Electrostatic:           -24.050753
##########        Van der Waals:           -23.878326
##########  Ligand Polar Desolv:             6.683588
########## Ligand Apolar Desolv:            -2.330274
##########      Internal Energy:             0.000000
##########      Receptor Energy: 0.0
########## Receptor Desolvation:             0.000000
########## Receptor Hydrophobic:             0.000000
##########         Total Energy: -43.58
##########        Ligand Charge:             1.000000
##########            Arbitrary:    +999.9990
##########     heavy atom count:   22
##########           pose count:    1
##########        Ligand Energy:             0.000000
# num electro vdwattr vdwrepu polsolv apolsol rdesolv rhydroe totalscore fullpol fullapo
#   1    0.05   -1.10    0.21    0.67   -0.16    0.00    0.00      -0.34    1.52   -0.37
#   2    2.70   -1.22    0.22   -4.05    1.47    0.00    0.00      -0.88   -9.86    3.57
#   3   -0.49   -0.70    0.12    0.33   -0.15    0.00    0.00      -0.90    1.01   -0.46
#   4    1.96   -0.53    0.03   -1.22   -0.06    0.00    0.00       0.17   -3.91   -0.18
#   5   -0.37   -0.78    0.20    0.41   -0.14    0.00    0.00      -0.68    1.43   -0.48
#   6    9.45   -1.99    3.03   -3.80    0.15    0.00    0.00       6.82  -12.32    0.47
#   7  -18.47   -0.33    0.44    5.12    0.18    0.00    0.00     -13.06   15.72    0.56
#   8   -0.57   -0.56    0.10    0.51   -0.08    0.00    0.00      -0.60    2.11   -0.34
#   9    1.52   -0.88    0.10   -0.79   -0.10    0.00    0.00      -0.14   -2.86   -0.35
#  10    0.50   -1.24    0.24   -0.65   -0.14    0.00    0.00      -1.29   -2.03   -0.45
#  11    0.56   -1.19    0.17   -0.95   -0.17    0.00    0.00      -1.58   -2.67   -0.47
#  12    0.52   -1.12    0.15   -0.73   -0.16    0.00    0.00      -1.33   -2.18   -0.47
#  13    0.94   -1.03    0.11   -0.86   -0.15    0.00    0.00      -0.99   -2.66   -0.47
#  14    0.89   -1.09    0.20   -0.58   -0.12    0.00    0.00      -0.70   -1.98   -0.42
#  15   -0.46   -0.98    0.18    0.35   -0.13    0.00    0.00      -1.04    0.94   -0.36
#  16    2.48   -0.74    0.05   -1.34   -0.09    0.00    0.00       0.36   -3.24   -0.21
#  17   -0.61   -0.88    0.10    0.49   -0.21    0.00    0.00      -1.12    1.07   -0.47
#  18   -0.08   -1.66    0.38   -0.17   -0.16    0.00    0.00      -1.71   -0.38   -0.36
#  19   -0.67   -1.63    0.36   -0.78   -0.26    0.00    0.00      -2.99   -1.40   -0.46
#  20    0.39   -2.06    0.35    0.08   -0.60    0.00    0.00      -1.84    0.13   -0.98
#  21   -2.29   -3.52    1.33   -1.28    1.28    0.00    0.00      -4.48   -2.05    2.05
#  22    0.03   -3.24    1.67    0.18   -0.53    0.00    0.00      -1.90    0.33   -0.98
#  23    0.01   -1.96    0.60   -0.80   -0.20    0.00    0.00      -2.36   -1.70   -0.42
#  24   -0.03   -0.42    0.09    0.55   -0.10    0.00    0.00       0.08    1.52   -0.28
#  25    0.46   -0.60    0.45    0.46   -0.10    0.00    0.00       0.66    1.22   -0.28
#  26   -0.47   -0.17    0.01    0.22   -0.03    0.00    0.00      -0.45    1.29   -0.19
#  27   -0.87   -0.46    0.32    0.33   -0.08    0.00    0.00      -0.76    1.19   -0.28
#  28   -0.90   -0.18    0.01    0.54   -0.05    0.00    0.00      -0.57    3.24   -0.27
#  29   -1.36   -0.11    0.01    0.65   -0.03    0.00    0.00      -0.84    6.21   -0.26
#  30   -2.67   -0.48    0.26    1.52   -0.08    0.00    0.00      -1.46    5.04   -0.28
#  31   -0.97   -0.10    0.00    0.62   -0.03    0.00    0.00      -0.47    5.69   -0.27
#  32   -1.15   -0.14    0.02    0.83   -0.04    0.00    0.00      -0.48    6.25   -0.28
#  33   -0.63   -0.45    0.26    1.30   -0.08    0.00    0.00       0.40    4.44   -0.28
#  34   -0.59   -0.26    0.04    0.41   -0.08    0.00    0.00      -0.49    1.41   -0.28
#  35   -0.76   -0.25    0.05    0.20   -0.07    0.00    0.00      -0.83    0.79   -0.28
#  36   -0.91   -0.22    0.02    0.33   -0.06    0.00    0.00      -0.83    1.58   -0.28
#  37   -1.15   -0.48    0.48    1.10   -0.06    0.00    0.00      -0.12    4.66   -0.25
#  38   -2.38   -0.38    0.20    1.27   -0.06    0.00    0.00      -1.34    5.00   -0.23
#  39   -4.01   -0.56    0.30    1.57   -0.10    0.00    0.00      -2.81    4.35   -0.28
#  40   -2.72   -0.32    0.04    0.93   -0.10    0.00    0.00      -2.16    2.68   -0.28
#  41   -1.06   -0.39    0.19    0.37   -0.09    0.00    0.00      -0.98    1.16   -0.28
#  42   -0.57   -0.39    0.06    0.69   -0.10    0.00    0.00      -0.31    1.86   -0.27
#  43    1.07   -0.27    0.02    0.50   -0.09    0.00    0.00       1.24    1.58   -0.28
#  44    0.45   -0.44    0.06    0.49   -0.15    0.00    0.00       0.40    0.88   -0.28
#  45   -0.62   -1.16    1.84    0.76   -0.14    0.00    0.00       0.69    1.58   -0.28
#  46   -0.17   -0.33    0.07    0.92   -0.07    0.00    0.00       0.41    3.09   -0.24
@<TRIPOS>MOLECULE
E46176862
   46    49     0     0     0
SMALL
USER_CHARGES


@<TRIPOS>ATOM
      1 C1         22.2628   16.8008   63.5214 C.3       1             0.0850
      2 N1         22.3067   17.2241   62.1153 N.3       1            -0.5100
      3 C2         23.6740   17.0250   61.5373 C.3       1             0.0598
      4 C3         24.1584   18.4060   61.2337 C.3       1            -0.1569
      5 C4         25.0735   18.8659   60.1449 C.3       1             0.0231
      6 N2         24.6099   20.2534   59.8242 N.4       1            -0.4009
      7 H1         24.4231   20.3318   58.8358 H         1             0.4280
      8 C5         25.6389   21.2257   60.2163 C.3       1             0.0493
      9 C6         25.1646   22.6183   59.8903 C.ar      1            -0.1624
     10 C7         25.4370   23.1693   58.6521 C.ar      1            -0.0939
     11 C8         25.0018   24.4468   58.3531 C.ar      1            -0.1129
     12 C9         24.2936   25.1732   59.2921 C.ar      1            -0.0836
     13 C10        24.0203   24.6219   60.5299 C.ar      1            -0.1135
     14 C11        24.4518   23.3429   60.8274 C.ar      1            -0.0949
     15 C12        23.3502   20.5028   60.6017 C.3       1             0.0206
     16 C13        22.8076   19.1032   60.7976 C.3       1            -0.1368
     17 C14        21.9639   18.6793   61.9808 C.3       1             0.0608
     18 C15        22.1288   15.3014   63.5906 C.ar      1            -0.0431
     19 C16        20.8794   14.7007   63.6123 C.ar      1            -0.1507
     20 C17        20.7956   13.3227   63.6762 C.ar      1             0.1048
     21 N3         21.8858   12.5819   63.7168 N.ar      1            -0.4799
     22 C18        23.0901   13.1188   63.6979 C.ar      1             0.1031
     23 C19        23.2520   14.4895   63.6285 C.ar      1            -0.1724
     24 H2         23.1814   17.1070   64.0219 H         1             0.0544
     25 H3         21.4085   17.2651   64.0141 H         1             0.0968
     26 H4         24.3280   16.5439   62.2646 H         1             0.0834
     27 H5         23.6182   16.4323   60.6243 H         1             0.0942
     28 H6         24.4833   18.8723   62.1639 H         1             0.0923
     29 H7         26.1052   18.8815   60.4965 H         1             0.1381
     30 H8         24.9785   18.2216   59.2708 H         1             0.1373
     31 H9         25.8244   21.1464   61.2874 H         1             0.1323
     32 H10        26.5603   21.0189   59.6718 H         1             0.1368
     33 H11        25.9903   22.6018   57.9185 H         1             0.1310
     34 H12        25.2152   24.8776   57.3860 H         1             0.1364
     35 H13        23.9542   26.1716   59.0587 H         1             0.1362
     36 H14        23.4674   25.1896   61.2636 H         1             0.1360
     37 H15        24.2351   22.9107   61.7932 H         1             0.1279
     38 H16        23.5730   20.9699   61.5609 H         1             0.1319
     39 H17        22.6533   21.1114   60.0255 H         1             0.1391
     40 H18        22.4243   18.6944   59.8627 H         1             0.1202
     41 H19        20.9031   18.8094   61.7666 H         1             0.1050
     42 H20        22.2496   19.2294   62.8774 H         1             0.0654
     43 H21        19.9828   15.3021   63.5800 H         1             0.1371
     44 H22        19.8262   12.8471   63.6935 H         1             0.1598
     45 H23        23.9600   12.4796   63.7328 H         1             0.1572
     46 H24        24.2410   14.9229   63.6082 H         1             0.1289
@<TRIPOS>BOND
     1    1    2 1 
     2    1   18 1 
     3    1   24 1 
     4    1   25 1 
     5    2   17 1 
     6    2    3 1 
     7    3    4 1 
     8    3   26 1 
     9    3   27 1 
    10    4   16 1 
    11    4    5 1 
    12    4   28 1 
    13    5    6 1 
    14    5   29 1 
    15    5   30 1 
    16    6    7 1 
    17    6    8 1 
    18    6   15 1 
    19    8    9 1 
    20    8   31 1 
    21    8   32 1 
    22    9   14 ar
    23    9   10 ar
    24   10   11 ar
    25   10   33 1 
    26   11   12 ar
    27   11   34 1 
    28   12   13 ar
    29   12   35 1 
    30   13   14 ar
    31   13   36 1 
    32   14   37 1 
    33   15   16 1 
    34   15   38 1 
    35   15   39 1 
    36   16   17 1 
    37   16   40 1 
    38   17   41 1 
    39   17   42 1 
    40   18   23 ar
    41   18   19 ar
    42   19   20 ar
    43   19   43 1 
    44   20   21 ar
    45   20   44 1 
    46   21   22 ar
    47   22   23 ar
    48   22   45 1 
    49   23   46 1 
##########                 Name:            E36427507
##########          Protonation:                  100
##########               SMILES:   COc1ccc(cc1c2ccc(s2)Cl)CC[NH3+]
##########            Long Name:   2-[3-(5-chloro-2-thienyl)-4-methoxy-phenyl]ethylammonium
##########          FlexRecCode: 1
##########               Number:                  830
##########   Ligand Source File: /raidb/db2/rgc/leads-emolecules-300/leads-emolecules-lt300-1e-0000067.db2.gz
##########           GlobalRank: 746
##########                 Rank:                    1
##########               Setnum:                   50
##########             Matchnum:                 4451
##########                Cloud:                    1
##########        Electrostatic:           -23.592228
##########        Van der Waals:           -25.593941
##########  Ligand Polar Desolv:             8.915069
########## Ligand Apolar Desolv:            -3.293000
##########      Internal Energy:             0.000000
##########      Receptor Energy: 0.0
########## Receptor Desolvation:             0.000000
########## Receptor Hydrophobic:             0.000000
##########         Total Energy: -43.56
##########        Ligand Charge:             1.000000
##########            Arbitrary:    +999.9990
##########     heavy atom count:   17
##########           pose count:    1
##########        Ligand Energy:             0.000000
# num electro vdwattr vdwrepu polsolv apolsol rdesolv rhydroe totalscore fullpol fullapo
#   1    0.07   -2.06    0.52    0.11    0.02    0.00    0.00      -1.35    0.16    0.03
#   2   -1.31   -1.90    0.44   -1.35    0.51    0.00    0.00      -3.61   -2.20    0.83
#   3    0.53   -1.77    0.39    0.34   -0.16    0.00    0.00      -0.67    0.65   -0.31
#   4   -0.04   -1.88    0.51   -1.47   -0.20    0.00    0.00      -3.08   -3.11   -0.42
#   5    0.13   -1.36    0.22   -0.38   -0.18    0.00    0.00      -1.57   -0.96   -0.45
#   6    0.50   -1.18    0.15   -0.82   -0.14    0.00    0.00      -1.50   -2.07   -0.36
#   7    0.82   -0.62    0.03   -1.17   -0.09    0.00    0.00      -1.02   -3.19   -0.25
#   8    0.13   -0.79    0.12    0.26   -0.17    0.00    0.00      -0.45    0.75   -0.48
#   9   13.45   -1.35    0.65   -8.16    0.28    0.00    0.00       4.87  -24.75    0.86
#  10   -6.60   -0.01    0.00    2.73    0.08    0.00    0.00      -3.81   19.32    0.58
#  11  -13.92   -0.09    0.02    6.88    0.21    0.00    0.00      -6.91   19.42    0.60
#  12   -9.75   -0.02    0.00    4.34    0.13    0.00    0.00      -5.30   19.12    0.58
#  13   -0.06   -1.51    0.29   -0.32   -0.19    0.00    0.00      -1.79   -0.74   -0.44
#  14   -0.19   -1.63    0.36   -0.60   -0.19    0.00    0.00      -2.25   -1.32   -0.41
#  15   -1.23   -1.76    0.30   -0.13   -0.15    0.00    0.00      -2.96   -0.24   -0.28
#  16   -1.58   -2.78    1.25   -0.75   -0.26    0.00    0.00      -4.11   -1.35   -0.47
#  17   -1.96   -3.19    1.39   -0.41   -0.28    0.00    0.00      -4.45   -0.70   -0.47
#  18   -1.75   -2.35    0.63   -0.42   -0.10    0.00    0.00      -4.00   -0.69   -0.17
#  19    0.31   -4.88    2.70   -0.06   -0.62    0.00    0.00      -2.55   -0.10   -1.00
#  20    1.56   -3.71    1.27   -0.07   -0.48    0.00    0.00      -1.43   -0.12   -0.82
#  21   -0.03   -1.14    0.98    0.47   -0.17    0.00    0.00       0.11    0.73   -0.26
#  22    0.34   -0.49    0.10    0.43   -0.16    0.00    0.00       0.22    0.75   -0.28
#  23    0.36   -0.99    0.65    0.51   -0.16    0.00    0.00       0.38    0.85   -0.26
#  24   -0.10   -0.46    0.15    0.71   -0.09    0.00    0.00       0.21    1.76   -0.22
#  25   -0.49   -0.21    0.02    0.97   -0.06    0.00    0.00       0.23    4.50   -0.28
#  26   -0.93   -0.22    0.01    1.01   -0.07    0.00    0.00      -0.19    3.96   -0.28
#  27   -0.78   -0.21    0.03    0.77   -0.05    0.00    0.00      -0.24    4.30   -0.28
#  28   -1.56   -0.30    0.08    1.21   -0.07    0.00    0.00      -0.64    4.58   -0.28
#  29   -2.21   -0.32    0.07    1.35   -0.09    0.00    0.00      -1.20    4.17   -0.28
#  30    0.23   -0.39    0.18    1.16   -0.09    0.00    0.00       1.09    3.69   -0.28
#  31    0.93   -0.98    1.36    1.08   -0.14    0.00    0.00       2.25    2.18   -0.28
#  32    1.55   -1.12    1.20    0.67   -0.17    0.00    0.00       2.14    1.12   -0.28
@<TRIPOS>MOLECULE
E36427507
   32    33     0     0     0
SMALL
USER_CHARGES


@<TRIPOS>ATOM
      1 C1         20.6454   12.4207   63.4222 C.3       1             0.0211
      2 O1         21.1035   13.4164   64.3395 O.3       1            -0.3015
      3 C2         21.6900   14.5210   63.8085 C.ar      1             0.1647
      4 C3         23.0567   14.5432   63.5857 C.ar      1            -0.2033
      5 C4         23.6527   15.6676   63.0455 C.ar      1            -0.0569
      6 C5         22.8903   16.7770   62.7240 C.ar      1            -0.1494
      7 C6         23.5511   17.9972   62.1360 C.3       1            -0.0958
      8 C7         23.5681   17.8827   60.6104 C.3       1            -0.0088
      9 N1         24.2122   19.0722   60.0373 N.4       1            -0.6386
     10 H1         25.1588   19.1401   60.3801 H         1             0.4354
     11 H2         24.2234   18.9968   59.0313 H         1             0.4393
     12 H3         23.6968   19.8967   60.3071 H         1             0.4357
     13 C8         21.5274   16.7699   62.9392 C.ar      1            -0.0452
     14 C9         20.9144   15.6390   63.4793 C.ar      1            -0.0372
     15 C10        19.4544   15.6235   63.7080 C.2       1            -0.1120
     16 C11        18.4379   15.7639   62.8018 C.2       1            -0.1337
     17 C12        17.1363   15.7142   63.2528 C.2       1            -0.1422
     18 C13        16.9026   15.5280   64.5783 C.2       1            -0.1221
     19 Cl1        15.3851   15.4253   65.4149 Cl        1             0.0250
     20 S1         18.5576   15.4087   65.2368 S.3       1             0.1332
     21 H4         20.1989   11.5948   63.9758 H         1             0.0621
     22 H5         19.9009   12.8559   62.7556 H         1             0.1102
     23 H6         21.4871   12.0523   62.8358 H         1             0.0615
     24 H7         23.6577   13.6811   63.8346 H         1             0.1408
     25 H8         24.7190   15.6805   62.8738 H         1             0.1312
     26 H9         22.9944   18.8877   62.4275 H         1             0.0963
     27 H10        24.5737   18.0705   62.5063 H         1             0.0965
     28 H11        24.1247   16.9922   60.3190 H         1             0.1351
     29 H12        22.5455   17.8095   60.2403 H         1             0.1355
     30 H13        20.9356   17.6375   62.6870 H         1             0.1366
     31 H14        18.6518   15.9113   61.7535 H         1             0.1411
     32 H15        16.3133   15.8222   62.5619 H         1             0.1455
@<TRIPOS>BOND
     1    1    2 1 
     2    1   21 1 
     3    1   22 1 
     4    1   23 1 
     5    2    3 1 
     6    3   14 ar
     7    3    4 ar
     8    4    5 ar
     9    4   24 1 
    10    5    6 ar
    11    5   25 1 
    12    6    7 1 
    13    6   13 ar
    14    7    8 1 
    15    7   26 1 
    16    7   27 1 
    17    8    9 1 
    18    8   28 1 
    19    8   29 1 
    20    9   10 1 
    21    9   11 1 
    22    9   12 1 
    23   13   14 ar
    24   13   30 1 
    25   14   15 1 
    26   15   20 1 
    27   15   16 2 
    28   16   17 1 
    29   16   31 1 
    30   17   18 2 
    31   17   32 1 
    32   18   19 1 
    33   18   20 1 
##########                 Name:            E36514834
##########          Protonation:                   58
##########               SMILES:   C[NH+]1CCN(CC1)CC(=O)Nc2c[nH]c3c2cccc3
##########            Long Name:   N-(1H-indol-3-yl)-2-(4-methylpiperazin-4-ium-1-yl)acetamide
##########          FlexRecCode: 1
##########               Number:                   64
##########   Ligand Source File: /raidb/db2/rgc/leads-emolecules-300/leads-emolecules-lt300-1f-0000212.db2.gz
##########           GlobalRank: 753
##########                 Rank:                    1
##########               Setnum:                   33
##########             Matchnum:                 6781
##########                Cloud:                    1
##########        Electrostatic:           -24.936691
##########        Van der Waals:           -25.120409
##########  Ligand Polar Desolv:             8.292587
########## Ligand Apolar Desolv:            -1.763696
##########      Internal Energy:             0.000000
##########      Receptor Energy: 0.0
########## Receptor Desolvation:             0.000000
########## Receptor Hydrophobic:             0.000000
##########         Total Energy: -43.53
##########        Ligand Charge:             1.000000
##########            Arbitrary:    +999.9990
##########     heavy atom count:   20
##########           pose count:    1
##########        Ligand Energy:             0.000000
# num electro vdwattr vdwrepu polsolv apolsol rdesolv rhydroe totalscore fullpol fullapo
#   1    1.02   -0.92    0.18   -0.59   -0.14    0.00    0.00      -0.45   -1.84   -0.45
#   2    8.82   -1.40    0.68   -3.69    0.19    0.00    0.00       4.60  -10.90    0.57
#   3  -15.21   -0.11    0.03    5.46    0.19    0.00    0.00      -9.64   16.26    0.56
#   4    0.04   -0.92    0.12    0.17   -0.18    0.00    0.00      -0.77    0.41   -0.43
#   5   -0.42   -0.82    0.08    0.14   -0.16    0.00    0.00      -1.18    0.34   -0.39
#   6    6.15   -0.95    0.09   -3.79    0.99    0.00    0.00       2.50  -11.57    3.03
#   7   -0.29   -0.73    0.08    0.36   -0.15    0.00    0.00      -0.74    1.02   -0.42
#   8   -1.32   -1.36    0.16    2.50   -0.26    0.00    0.00      -0.27    6.11   -0.63
#   9   -0.68   -2.62    1.01   -2.48    0.13    0.00    0.00      -4.64   -5.21    0.27
#  10    1.46   -1.64    0.91   -2.66    0.65    0.00    0.00      -1.29   -6.87    1.67
#  11    0.04   -1.88    1.11    0.10   -0.36    0.00    0.00      -0.99    0.22   -0.76
#  12    0.08   -2.27    0.59    0.00   -0.50    0.00    0.00      -2.10    0.00   -0.91
#  13   -2.53   -2.66    0.61   -2.01    0.74    0.00    0.00      -5.85   -3.17    1.17
#  14    0.52   -1.92    0.36    0.11   -0.47    0.00    0.00      -1.41    0.18   -0.78
#  15   -0.64   -2.86    1.62   -0.43   -0.29    0.00    0.00      -2.59   -0.72   -0.48
#  16   -0.88   -2.38    1.12   -0.36   -0.29    0.00    0.00      -2.78   -0.59   -0.47
#  17   -2.22   -2.17    0.61   -0.57   -0.27    0.00    0.00      -4.61   -1.00   -0.47
#  18   -0.88   -1.98    0.59   -0.25   -0.24    0.00    0.00      -2.75   -0.50   -0.47
#  19   -0.62   -1.60    0.32   -0.42   -0.24    0.00    0.00      -2.55   -0.78   -0.44
#  20   -0.24   -0.62    0.07    0.06   -0.11    0.00    0.00      -0.84    0.19   -0.37
#  21    0.01   -0.55    0.07    0.17   -0.11    0.00    0.00      -0.41    0.65   -0.43
#  22   -1.74   -0.36    0.21    0.95   -0.06    0.00    0.00      -1.01    4.18   -0.28
#  23   -1.44   -0.17    0.02    0.89   -0.05    0.00    0.00      -0.75    4.86   -0.28
#  24   -2.95   -0.58    0.39    0.92   -0.05    0.00    0.00      -2.26    2.74   -0.15
#  25   -2.26   -0.37    0.13    1.63   -0.08    0.00    0.00      -0.94    5.99   -0.28
#  26   -3.59   -0.41    0.10    1.34   -0.10    0.00    0.00      -2.66    3.61   -0.28
#  27   -0.77   -0.22    0.02    0.69   -0.06    0.00    0.00      -0.34    2.48   -0.21
#  28   -2.94   -0.44    0.10    1.00   -0.11    0.00    0.00      -2.38    2.49   -0.28
#  29   -0.61   -0.33    0.16    0.50   -0.06    0.00    0.00      -0.34    2.45   -0.28
#  30   -0.99   -0.27    0.03    0.79   -0.08    0.00    0.00      -0.52    2.77   -0.28
#  31   -1.94   -0.04    0.00    1.62    0.16    0.00    0.00      -0.20    6.04    0.59
#  32   -0.36   -0.62    0.32    0.53   -0.08    0.00    0.00      -0.21    1.20   -0.19
#  33    2.37   -0.07    0.00    2.03    0.35    0.00    0.00       4.69    3.39    0.59
#  34    0.11   -1.01    0.90    0.45   -0.15    0.00    0.00       0.30    0.83   -0.28
#  35    1.26   -0.61    0.41    0.40   -0.11    0.00    0.00       1.35    1.01   -0.28
#  36    3.11   -0.76    0.79    0.60   -0.14    0.00    0.00       3.60    1.20   -0.28
#  37    1.59   -0.60    0.68    0.61   -0.10    0.00    0.00       2.17    1.64   -0.28
#  38   -0.48   -0.11    0.00    0.22   -0.02    0.00    0.00      -0.39    1.98   -0.21
#  39   -2.61   -0.45    0.21    0.20   -0.06    0.00    0.00      -2.71    0.66   -0.20
#  40   -1.64   -0.14    0.02    0.38   -0.03    0.00    0.00      -1.42    3.09   -0.28
#  41   -1.28   -0.14    0.01    0.70   -0.04    0.00    0.00      -0.75    4.78   -0.28
@<TRIPOS>MOLECULE
E36514834
   41    43     0     0     0
SMALL
USER_CHARGES


@<TRIPOS>ATOM
      1 C1         24.0883   21.9523   60.4136 C.3       1            -0.0576
      2 N1         23.9746   20.5094   60.1620 N.4       1            -0.3858
      3 H1         23.8854   20.3474   59.1702 H         1             0.4307
      4 C2         22.7889   19.9845   60.8521 C.3       1            -0.0018
      5 C3         22.6615   18.4845   60.5783 C.3       1             0.0244
      6 N2         23.8701   17.7996   61.0576 N.3       1            -0.5206
      7 C4         23.9933   17.9094   62.5174 C.3       1             0.0392
      8 C5         23.0955   16.8931   63.1751 C.2       1             0.5090
      9 O1         22.6153   17.1234   64.2650 O.2       1            -0.5199
     10 N3         22.8261   15.7287   62.5522 N.am      1            -0.6294
     11 C6         21.9883   14.7804   63.1660 C.2       1             0.0344
     12 C7         22.3187   13.5202   63.5074 C.2       1             0.0467
     13 N4         21.2395   12.8969   64.0844 N.pl3     1            -0.5910
     14 C8         20.1682   13.7604   64.1281 C.ar      1             0.1094
     15 C9         18.8639   13.6427   64.5990 C.ar      1            -0.1279
     16 C10        18.0018   14.7125   64.5007 C.ar      1            -0.0901
     17 C11        18.4206   15.9096   63.9358 C.ar      1            -0.1405
     18 C12        19.6966   16.0467   63.4667 C.ar      1            -0.0746
     19 C13        20.5889   14.9775   63.5624 C.ar      1            -0.1151
     20 C14        25.0660   18.3285   60.3871 C.3       1             0.0175
     21 C15        25.1767   19.8296   60.6624 C.3       1            -0.0005
     22 H2         24.1847   22.1278   61.4849 H         1             0.1258
     23 H3         24.9675   22.3424   59.9008 H         1             0.1260
     24 H4         23.1969   22.4573   60.0416 H         1             0.1187
     25 H5         22.8894   20.1508   61.9246 H         1             0.1377
     26 H6         21.8992   20.4974   60.4867 H         1             0.1403
     27 H7         21.7892   18.0919   61.1009 H         1             0.0638
     28 H8         22.5496   18.3181   59.5068 H         1             0.1249
     29 H9         25.0269   17.7242   62.8097 H         1             0.0791
     30 H10        23.7004   18.9107   62.8325 H         1             0.1214
     31 H11        23.2101   15.5447   61.6808 H         1             0.4136
     32 H12        23.2868   13.0678   63.3505 H         1             0.1939
     33 H13        21.2330   11.9840   64.4121 H         1             0.4225
     34 H14        18.5286   12.7155   65.0398 H         1             0.1256
     35 H15        16.9899   14.6189   64.8665 H         1             0.1303
     36 H16        17.7323   16.7388   63.8661 H         1             0.1266
     37 H17        20.0150   16.9806   63.0278 H         1             0.1190
     38 H18        25.9520   17.8218   60.7698 H         1             0.0583
     39 H19        24.9855   18.1601   59.3132 H         1             0.1390
     40 H20        26.0563   20.2276   60.1565 H         1             0.1410
     41 H21        25.2683   19.9964   61.7357 H         1             0.1360
@<TRIPOS>BOND
     1    1    2 1 
     2    1   22 1 
     3    1   23 1 
     4    1   24 1 
     5    2    3 1 
     6    2   21 1 
     7    2    4 1 
     8    4    5 1 
     9    4   25 1 
    10    4   26 1 
    11    5    6 1 
    12    5   27 1 
    13    5   28 1 
    14    6    7 1 
    15    6   20 1 
    16    7    8 1 
    17    7   29 1 
    18    7   30 1 
    19    8    9 2 
    20    8   10 am
    21   10   11 1 
    22   10   31 1 
    23   11   19 1 
    24   11   12 2 
    25   12   13 1 
    26   12   32 1 
    27   13   14 1 
    28   13   33 1 
    29   14   19 ar
    30   14   15 ar
    31   15   16 ar
    32   15   34 1 
    33   16   17 ar
    34   16   35 1 
    35   17   18 ar
    36   17   36 1 
    37   18   19 ar
    38   18   37 1 
    39   20   21 1 
    40   20   38 1 
    41   20   39 1 
    42   21   40 1 
    43   21   41 1 
##########                 Name:            E25854735
##########          Protonation:                   28
##########               SMILES:   [H]/N=C(/c1cccc(c1)[N+](=O)[O-])\NOC(=O)c2ccccc2C
##########            Long Name:   [(3-nitrobenzenecarboximidoyl)amino]
##########          FlexRecCode: 1
##########               Number:                  442
##########   Ligand Source File: /raidb/db2/rgc/leads-emolecules-300/leads-emolecules-lt300-2j-0000091.db2.gz
##########           GlobalRank: 759
##########                 Rank:                    1
##########               Setnum:                   70
##########             Matchnum:                 5964
##########                Cloud:                    1
##########        Electrostatic:            -8.478000
##########        Van der Waals:           -34.291752
##########  Ligand Polar Desolv:             4.255374
########## Ligand Apolar Desolv:            -5.007649
##########      Internal Energy:             0.000000
##########      Receptor Energy: 0.0
########## Receptor Desolvation:             0.000000
########## Receptor Hydrophobic:             0.000000
##########         Total Energy: -43.52
##########        Ligand Charge:             0.000000
##########            Arbitrary:    +999.9990
##########     heavy atom count:   22
##########           pose count:    1
##########        Ligand Energy:             0.000000
# num electro vdwattr vdwrepu polsolv apolsol rdesolv rhydroe totalscore fullpol fullapo
#   1   -0.45   -2.59    0.84   -0.03   -0.12    0.00    0.00      -2.34   -0.04   -0.18
#   2   -0.07   -2.82    0.75   -0.01   -0.27    0.00    0.00      -2.42   -0.01   -0.41
#   3   -0.77   -3.36    1.04   -0.21   -0.28    0.00    0.00      -3.59   -0.33   -0.44
#   4   -0.66   -2.60    0.86   -0.15   -0.31    0.00    0.00      -2.86   -0.23   -0.47
#   5   -1.55   -2.63    1.51   -0.24   -0.29    0.00    0.00      -3.20   -0.38   -0.47
#   6   -0.77   -3.06    1.58   -0.04   -0.27    0.00    0.00      -2.56   -0.06   -0.45
#   7   -1.79   -2.52    0.92    0.09   -0.26    0.00    0.00      -3.57    0.14   -0.41
#   8    6.72   -2.03    0.38   -0.52   -0.10    0.00    0.00       4.45   -0.86   -0.17
#   9  -10.63   -3.08    2.80    0.69   -0.17    0.00    0.00     -10.38    1.22   -0.30
#  10   -0.88   -1.81    0.58    0.11   -0.33    0.00    0.00      -2.33    0.18   -0.56
#  11   -3.71   -1.62    0.23    0.00    0.37    0.00    0.00      -4.73    0.00    0.64
#  12    1.80   -1.82    0.33   -0.36   -1.31    0.00    0.00      -1.36   -0.60   -2.20
#  13   -2.71   -3.04    0.81    1.99    0.85    0.00    0.00      -2.09    3.06    1.31
#  14   -0.07   -1.83    0.47   -0.02   -0.20    0.00    0.00      -1.67   -0.05   -0.41
#  15    0.00   -1.49    0.34   -0.05   -0.19    0.00    0.00      -1.39   -0.12   -0.44
#  16    0.32   -1.36    0.20   -0.23   -0.18    0.00    0.00      -1.24   -0.60   -0.47
#  17    0.09   -1.76    0.55   -0.03   -0.17    0.00    0.00      -1.32   -0.09   -0.45
#  18    0.09   -2.45    1.15    0.06   -0.31    0.00    0.00      -1.45    0.13   -0.70
#  19    0.00   -2.84    1.62    0.01   -0.21    0.00    0.00      -1.43    0.02   -0.42
#  20   -0.06   -2.68    1.49   -0.09    0.18    0.00    0.00      -1.15   -0.21    0.43
#  21    0.31   -3.41    2.22    0.43   -0.29    0.00    0.00      -0.75    0.93   -0.63
#  22    0.13   -1.43    0.67    0.69   -0.22    0.00    0.00      -0.17    1.96   -0.63
#  23   -0.14   -1.38    0.90   -0.01   -0.19    0.00    0.00      -0.81   -0.01   -0.28
#  24    0.08   -0.90    0.72    0.14   -0.16    0.00    0.00      -0.12    0.24   -0.28
#  25    0.75   -0.79    0.30   -0.05   -0.13    0.00    0.00       0.08   -0.09   -0.21
#  26   -0.03   -1.11    0.85    0.50   -0.18    0.00    0.00       0.03    0.79   -0.28
#  27    1.17   -0.54    0.16    0.59   -0.15    0.00    0.00       1.23    1.12   -0.28
#  28    1.31   -0.46    0.09    0.40   -0.13    0.00    0.00       1.22    0.86   -0.28
#  29    1.35   -0.81    0.41    0.14   -0.15    0.00    0.00       0.94    0.24   -0.26
#  30    2.56   -0.02    0.00    0.37    0.13    0.00    0.00       3.04    1.04    0.37
#  31    0.19   -0.05    0.00   -0.77    0.32    0.00    0.00      -0.32   -1.28    0.53
#  32    0.20   -0.25    0.03    0.48   -0.06    0.00    0.00       0.40    1.73   -0.22
#  33   -0.87   -0.21    0.02    0.55   -0.06    0.00    0.00      -0.57    2.62   -0.28
#  34   -0.64   -0.32    0.08    0.20   -0.06    0.00    0.00      -0.73    0.91   -0.27
#  35    0.26   -0.92    0.79   -0.38   -0.13    0.00    0.00      -0.37   -0.72   -0.24
@<TRIPOS>MOLECULE
E25854735
   35    36     0     0     0
SMALL
USER_CHARGES


@<TRIPOS>ATOM
      1 C1         17.7403   14.4737   66.9754 C.3       1            -0.1281
      2 C2         16.4863   14.8667   66.2376 C.ar      1            -0.0092
      3 C3         15.2593   14.7741   66.8616 C.ar      1            -0.1333
      4 C4         14.1073   15.1345   66.1857 C.ar      1            -0.0698
      5 C5         14.1769   15.5903   64.8809 C.ar      1            -0.1369
      6 C6         15.3972   15.6877   64.2453 C.ar      1            -0.0588
      7 C7         16.5643   15.3306   64.9234 C.ar      1            -0.1372
      8 C8         17.8757   15.4377   64.2507 C.2       1             0.4975
      9 O1         18.2653   16.5159   63.8468 O.2       1            -0.4865
     10 O2         18.6372   14.3436   64.0856 O.3       1            -0.1122
     11 N1         19.8660   14.5910   63.4266 N.pl3     1            -0.6100
     12 C9         20.9624   13.8157   63.7061 C.2       1             0.4662
     13 N2         20.8069   12.5723   64.0688 N.2       1            -0.7179
     14 C10        22.3232   14.3903   63.5959 C.ar      1            -0.0449
     15 C11        22.4925   15.7207   63.2138 C.ar      1            -0.0507
     16 C12        23.7626   16.2504   63.1130 C.ar      1            -0.1126
     17 C13        24.8668   15.4644   63.3895 C.ar      1            -0.0361
     18 C14        24.7053   14.1439   63.7689 C.ar      1            -0.0509
     19 C15        23.4397   13.6047   63.8793 C.ar      1             0.0016
     20 N3         25.8919   13.3094   64.0630 N.pl3     1             0.0314
     21 O3         25.7519   12.1552   64.3946 O.2       1            -0.1523
     22 O4         27.0011   13.7818   63.9715 O.3       1            -0.1465
     23 H1         17.4811   14.1394   67.9799 H         1             0.0813
     24 H2         18.2382   13.6650   66.4405 H         1             0.0677
     25 H3         18.4085   15.3325   67.0393 H         1             0.0915
     26 H4         15.1979   14.4192   67.8797 H         1             0.1373
     27 H5         13.1492   15.0594   66.6785 H         1             0.1347
     28 H6         13.2737   15.8700   64.3589 H         1             0.1362
     29 H7         15.4501   16.0432   63.2269 H         1             0.1369
     30 H8         19.9322   15.3087   62.7775 H         1             0.4215
     31 H9         19.9156   12.1960   64.1409 H         1             0.3532
     32 H10        21.6312   16.3353   62.9970 H         1             0.1439
     33 H11        23.8950   17.2806   62.8172 H         1             0.1579
     34 H12        25.8588   15.8835   63.3084 H         1             0.1609
     35 H13        23.3144   12.5751   64.1803 H         1             0.1740
@<TRIPOS>BOND
     1    1    2 1 
     2    1   23 1 
     3    1   24 1 
     4    1   25 1 
     5    2    7 ar
     6    2    3 ar
     7    3    4 ar
     8    3   26 1 
     9    4    5 ar
    10    4   27 1 
    11    5    6 ar
    12    5   28 1 
    13    6    7 ar
    14    6   29 1 
    15    7    8 1 
    16    8    9 2 
    17    8   10 1 
    18   10   11 1 
    19   11   12 1 
    20   11   30 1 
    21   12   13 2 
    22   12   14 1 
    23   13   31 1 
    24   14   19 ar
    25   14   15 ar
    26   15   16 ar
    27   15   32 1 
    28   16   17 ar
    29   16   33 1 
    30   17   18 ar
    31   17   34 1 
    32   18   19 ar
    33   18   20 1 
    34   19   35 1 
    35   20   21 2 
    36   20   22 1 
##########                 Name:            E46140398
##########          Protonation:                   33
##########               SMILES:   c1cc(cnc1)C[NH+]2C[C@@H]3CN(C[C@@H]3C2)Cc4ccncc4
##########            Long Name:   l)-5-(4-pyridylmethyl)-2,3,3a,4,6,6a-hexahydro-1H-pyrrolo[3,4-c]pyrrol-2-ium
##########          FlexRecCode: 1
##########               Number:                  657
##########   Ligand Source File: /raidb/db2/rgc/leads-emolecules-300/leads-emolecules-2g-0000165.db2.gz
##########           GlobalRank: 784
##########                 Rank:                    1
##########               Setnum:                   70
##########             Matchnum:                 3711
##########                Cloud:                    1
##########        Electrostatic:           -23.665644
##########        Van der Waals:           -24.865177
##########  Ligand Polar Desolv:             6.876965
########## Ligand Apolar Desolv:            -1.770865
##########      Internal Energy:             0.000000
##########      Receptor Energy: 0.0
########## Receptor Desolvation:             0.000000
########## Receptor Hydrophobic:             0.000000
##########         Total Energy: -43.42
##########        Ligand Charge:             1.000000
##########            Arbitrary:    +999.9990
##########     heavy atom count:   22
##########           pose count:    1
##########        Ligand Energy:             0.000000
# num electro vdwattr vdwrepu polsolv apolsol rdesolv rhydroe totalscore fullpol fullapo
#   1    0.05   -1.10    0.21    0.69   -0.17    0.00    0.00      -0.32    1.57   -0.38
#   2    2.63   -1.22    0.22   -4.28    1.47    0.00    0.00      -1.18  -10.42    3.57
#   3   -0.28   -0.70    0.12    0.16   -0.13    0.00    0.00      -0.83    0.50   -0.39
#   4    1.75   -0.89    0.17   -0.97   -0.09    0.00    0.00      -0.03   -2.71   -0.26
#   5    0.03   -0.67    0.11    0.24   -0.12    0.00    0.00      -0.41    0.85   -0.43
#   6    8.38   -1.50    1.36   -3.77    0.13    0.00    0.00       4.60  -12.62    0.42
#   7  -16.40   -0.19    0.13    4.58    0.17    0.00    0.00     -11.72   15.54    0.56
#   8   -0.59   -0.47    0.05    0.56   -0.08    0.00    0.00      -0.52    2.48   -0.36
#   9    1.94   -0.74    0.05   -1.03   -0.09    0.00    0.00       0.14   -3.99   -0.35
#  10   -0.11   -0.83    0.09    0.45   -0.24    0.00    0.00      -0.65    1.78   -0.95
#  11   -0.70   -1.05    0.14   -2.27    0.62    0.00    0.00      -3.27   -7.52    2.04
#  12   -0.67   -0.96    0.08    0.15   -0.32    0.00    0.00      -1.72    0.46   -0.98
#  13    1.80   -1.38    0.37   -1.09   -0.15    0.00    0.00      -0.46   -3.41   -0.48
#  14    0.56   -1.39    0.33   -0.29   -0.13    0.00    0.00      -0.93   -0.93   -0.42
#  15    0.06   -0.88    0.13    0.11   -0.13    0.00    0.00      -0.70    0.30   -0.36
#  16    2.05   -0.81    0.07   -1.07   -0.11    0.00    0.00       0.13   -2.54   -0.26
#  17   -0.37   -0.85    0.09    0.29   -0.20    0.00    0.00      -1.04    0.65   -0.44
#  18   -0.08   -1.66    0.38   -0.18   -0.16    0.00    0.00      -1.71   -0.39   -0.36
#  19   -0.68   -1.63    0.36   -0.82   -0.26    0.00    0.00      -3.03   -1.47   -0.46
#  20    0.39   -2.06    0.35    0.07   -0.60    0.00    0.00      -1.85    0.11   -0.98
#  21   -2.29   -3.52    1.33   -1.31    1.27    0.00    0.00      -4.51   -2.10    2.04
#  22    0.03   -3.24    1.67    0.17   -0.53    0.00    0.00      -1.90    0.32   -0.98
#  23    0.01   -1.96    0.60   -0.83   -0.20    0.00    0.00      -2.38   -1.75   -0.42
#  24   -0.03   -0.42    0.09    0.68   -0.09    0.00    0.00       0.21    1.87   -0.26
#  25    0.46   -0.60    0.45    0.48   -0.10    0.00    0.00       0.68    1.28   -0.28
#  26   -0.41   -0.16    0.01    0.40   -0.03    0.00    0.00      -0.20    2.64   -0.23
#  27   -0.66   -0.34    0.18    0.15   -0.07    0.00    0.00      -0.74    0.63   -0.27
#  28   -2.41   -0.66    0.61    0.96   -0.11    0.00    0.00      -1.60    2.47   -0.28
#  29   -1.30   -0.11    0.00    0.66   -0.03    0.00    0.00      -0.77    6.00   -0.24
#  30   -1.92   -0.26    0.05    1.36   -0.06    0.00    0.00      -0.82    6.07   -0.28
#  31   -0.86   -0.10    0.00    0.66   -0.03    0.00    0.00      -0.32    6.70   -0.26
#  32   -1.15   -0.13    0.02    0.83   -0.04    0.00    0.00      -0.47    6.52   -0.28
#  33    0.32   -0.15    0.01    0.68   -0.04    0.00    0.00       0.82    4.66   -0.28
#  34   -0.64   -0.19    0.01    0.24   -0.05    0.00    0.00      -0.63    1.22   -0.28
#  35   -1.71   -0.51    0.32    0.62   -0.07    0.00    0.00      -1.35    2.49   -0.28
#  36   -1.43   -0.63    0.44    1.99   -0.09    0.00    0.00       0.28    5.99   -0.28
#  37   -2.06   -0.32    0.10    1.33   -0.05    0.00    0.00      -1.00    5.90   -0.23
#  38   -3.52   -0.41    0.11    1.46   -0.09    0.00    0.00      -2.44    4.30   -0.27
#  39   -3.07   -0.36    0.06    0.88   -0.10    0.00    0.00      -2.59    2.39   -0.28
#  40   -0.96   -0.44    0.25    0.33   -0.09    0.00    0.00      -0.91    1.03   -0.28
#  41   -0.53   -0.33    0.04    0.87   -0.08    0.00    0.00      -0.03    2.58   -0.24
#  42    1.06   -0.27    0.02    0.50   -0.09    0.00    0.00       1.23    1.57   -0.28
#  43    0.45   -0.44    0.06    0.46   -0.15    0.00    0.00       0.37    0.83   -0.28
#  44   -0.62   -1.16    1.84    0.77   -0.14    0.00    0.00       0.69    1.59   -0.28
#  45   -0.17   -0.33    0.07    0.99   -0.08    0.00    0.00       0.47    3.33   -0.28
@<TRIPOS>MOLECULE
E46140398
   45    48     0     0     0
SMALL
USER_CHARGES


@<TRIPOS>ATOM
      1 C1         22.2628   16.8008   63.5214 C.3       1             0.0837
      2 N1         22.3067   17.2241   62.1153 N.3       1            -0.4981
      3 C2         23.6625   17.0267   61.5422 C.3       1             0.0345
      4 C3         23.7108   17.9643   60.3178 C.3       1            -0.1096
      5 C4         25.0631   18.7069   60.3126 C.3       1            -0.0020
      6 N2         24.7179   20.1169   59.9987 N.4       1            -0.3951
      7 H1         24.5551   20.2283   59.0091 H         1             0.4288
      8 C5         25.7859   21.0197   60.4486 C.3       1             0.0559
      9 C6         25.2393   22.4178   60.5805 C.ar      1            -0.2197
     10 C7         25.5421   23.1860   61.6891 C.ar      1             0.1328
     11 N3         25.0679   24.4102   61.8114 N.ar      1            -0.4749
     12 C8         24.2923   24.9487   60.8906 C.ar      1             0.1386
     13 C9         23.9469   24.2408   59.7552 C.ar      1            -0.1660
     14 C10        24.4309   22.9520   59.5890 C.ar      1            -0.0473
     15 C11        23.4685   20.3650   60.7620 C.3       1            -0.0031
     16 C12        22.6546   19.0625   60.6155 C.3       1            -0.1074
     17 C13        22.0678   18.6848   61.9916 C.3       1             0.0363
     18 C14        22.1288   15.3014   63.5906 C.ar      1            -0.0432
     19 C15        20.8794   14.7007   63.6123 C.ar      1            -0.1512
     20 C16        20.7956   13.3227   63.6762 C.ar      1             0.1049
     21 N4         21.8858   12.5819   63.7168 N.ar      1            -0.4797
     22 C17        23.0901   13.1188   63.6979 C.ar      1             0.1027
     23 C18        23.2520   14.4895   63.6285 C.ar      1            -0.1713
     24 H2         23.1814   17.1070   64.0219 H         1             0.0558
     25 H3         21.4085   17.2651   64.0141 H         1             0.0964
     26 H4         24.4260   17.3089   62.2671 H         1             0.0571
     27 H5         23.7965   15.9902   61.2323 H         1             0.1005
     28 H6         23.5136   17.4378   59.3840 H         1             0.1274
     29 H7         25.5363   18.6409   61.2924 H         1             0.1342
     30 H8         25.7187   18.2963   59.5448 H         1             0.1404
     31 H9         26.1623   20.6840   61.4149 H         1             0.1357
     32 H10        26.5973   21.0140   59.7207 H         1             0.1415
     33 H11        26.1743   22.7785   62.4642 H         1             0.1626
     34 H12        23.9225   25.9542   61.0258 H         1             0.1712
     35 H13        23.3114   24.6872   59.0048 H         1             0.1510
     36 H14        24.1814   22.3767   58.7097 H         1             0.1419
     37 H15        23.6957   20.5547   61.8111 H         1             0.1321
     38 H16        22.9218   21.2047   60.3331 H         1             0.1341
     39 H17        21.8951   19.1331   59.8368 H         1             0.1268
     40 H18        20.9994   18.8986   62.0205 H         1             0.1026
     41 H19        22.5853   19.2229   62.7858 H         1             0.0570
     42 H20        19.9828   15.3021   63.5800 H         1             0.1367
     43 H21        19.8262   12.8471   63.6935 H         1             0.1598
     44 H22        23.9600   12.4796   63.7328 H         1             0.1573
     45 H23        24.2410   14.9229   63.6082 H         1             0.1282
@<TRIPOS>BOND
     1    1    2 1 
     2    1   18 1 
     3    1   24 1 
     4    1   25 1 
     5    2   17 1 
     6    2    3 1 
     7    3    4 1 
     8    3   26 1 
     9    3   27 1 
    10    4   16 1 
    11    4    5 1 
    12    4   28 1 
    13    5    6 1 
    14    5   29 1 
    15    5   30 1 
    16    6    7 1 
    17    6    8 1 
    18    6   15 1 
    19    8    9 1 
    20    8   31 1 
    21    8   32 1 
    22    9   14 ar
    23    9   10 ar
    24   10   11 ar
    25   10   33 1 
    26   11   12 ar
    27   12   13 ar
    28   12   34 1 
    29   13   14 ar
    30   13   35 1 
    31   14   36 1 
    32   15   16 1 
    33   15   37 1 
    34   15   38 1 
    35   16   17 1 
    36   16   39 1 
    37   17   40 1 
    38   17   41 1 
    39   18   23 ar
    40   18   19 ar
    41   19   20 ar
    42   19   42 1 
    43   20   21 ar
    44   20   43 1 
    45   21   22 ar
    46   22   23 ar
    47   22   44 1 
    48   23   45 1 
##########                 Name:             E1156137
##########          Protonation:                   42
##########               SMILES:   C[NH+](C)Cc1ccc(c(n1)CCc2ccccc2)O
##########            Long Name:   (5-hydroxy-6-phenethyl-2-pyridyl)methyl-dimethyl-ammonium
##########          FlexRecCode: 1
##########               Number:                  648
##########   Ligand Source File: /raidb/db2/rgc/leads-emolecules-300/leads-emolecules-3-ab-0000003.db2.gz
##########           GlobalRank: 790
##########                 Rank:                    1
##########               Setnum:                   82
##########             Matchnum:                 5139
##########                Cloud:                    1
##########        Electrostatic:           -19.829014
##########        Van der Waals:           -28.756334
##########  Ligand Polar Desolv:             8.793391
########## Ligand Apolar Desolv:            -3.604733
##########      Internal Energy:             0.000000
##########      Receptor Energy: 0.0
########## Receptor Desolvation:             0.000000
########## Receptor Hydrophobic:             0.000000
##########         Total Energy: -43.4
##########        Ligand Charge:             1.000000
##########            Arbitrary:    +999.9990
##########     heavy atom count:   19
##########           pose count:    1
##########        Ligand Energy:             0.000000
# num electro vdwattr vdwrepu polsolv apolsol rdesolv rhydroe totalscore fullpol fullapo
#   1    0.77   -1.42    0.32   -0.65   -0.25    0.00    0.00      -1.24   -1.22   -0.47
#   2    6.18   -1.07    0.12   -4.90    0.20    0.00    0.00       0.53  -11.13    0.46
#   3   -6.54   -0.02    0.00    4.69    0.17    0.00    0.00      -1.71   15.04    0.56
#   4    1.11   -1.09    0.23   -0.59   -0.20    0.00    0.00      -0.54   -1.41   -0.48
#   5   -0.49   -0.76    0.06    0.90   -0.16    0.00    0.00      -0.45    2.08   -0.37
#   6   -0.06   -1.38    0.27    0.72   -0.27    0.00    0.00      -0.72    1.67   -0.62
#   7    0.22   -1.48    0.55   -0.97   -0.18    0.00    0.00      -1.85   -2.45   -0.45
#   8   -0.08   -1.87    0.99   -1.03   -0.22    0.00    0.00      -2.22   -2.21   -0.48
#   9    0.41   -1.72    0.56    0.25   -0.18    0.00    0.00      -0.67    0.45   -0.31
#  10   -1.86   -1.63    0.19   -3.67    0.69    0.00    0.00      -6.28   -5.92    1.11
#  11    0.93   -1.67    0.33    0.52   -0.33    0.00    0.00      -0.22    1.06   -0.67
#  12   -0.84   -1.32    0.25   -0.30   -0.13    0.00    0.00      -2.34   -0.54   -0.23
#  13   -1.00   -1.46    0.31   -0.34   -0.14    0.00    0.00      -2.63   -0.57   -0.23
#  14   -1.38   -2.33    0.53   -0.45   -0.23    0.00    0.00      -3.87   -0.71   -0.36
#  15   -1.17   -2.89    0.97   -0.68   -0.30    0.00    0.00      -4.07   -1.03   -0.45
#  16   -1.04   -2.88    0.80   -0.59   -0.30    0.00    0.00      -4.02   -0.92   -0.47
#  17   -1.25   -2.41    1.00   -0.56   -0.31    0.00    0.00      -3.53   -0.86   -0.47
#  18   -1.33   -3.03    1.71   -0.51   -0.28    0.00    0.00      -3.44   -0.85   -0.47
#  19   -1.67   -2.93    1.00   -0.58   -0.27    0.00    0.00      -4.44   -0.97   -0.45
#  20   -2.86   -2.01    0.80   -3.67    0.70    0.00    0.00      -7.04   -8.14    1.56
#  21   -1.90   -0.36    0.06    1.77   -0.12    0.00    0.00      -0.55    4.02   -0.28
#  22   -3.19   -1.07    1.99    0.78   -0.11    0.00    0.00      -1.60    1.52   -0.22
#  23   -1.13   -0.52    0.22    1.48   -0.12    0.00    0.00      -0.08    3.33   -0.28
#  24   -2.49   -0.20    0.02    0.75   -0.06    0.00    0.00      -1.98    3.78   -0.28
#  25   -4.16   -0.83    0.79    2.13   -0.12    0.00    0.00      -2.19    5.06   -0.28
#  26   -3.10   -0.36    0.07    1.46   -0.10    0.00    0.00      -2.03    4.14   -0.28
#  27   -1.21   -0.19    0.01    1.69   -0.07    0.00    0.00       0.23    7.02   -0.27
#  28   -1.29   -0.38    0.08    1.48   -0.09    0.00    0.00      -0.20    4.38   -0.28
#  29   -0.58   -0.20    0.02    1.16   -0.06    0.00    0.00       0.34    5.75   -0.28
#  30   -0.05   -0.36    0.06    0.90   -0.11    0.00    0.00       0.44    2.29   -0.28
#  31    1.64   -0.03    0.00    2.93    0.60    0.00    0.00       5.14    6.01    1.22
#  32    1.26   -0.57    0.22    0.45   -0.14    0.00    0.00       1.22    0.92   -0.28
#  33    0.83   -0.57    0.31    0.20   -0.11    0.00    0.00       0.66    0.48   -0.26
#  34    0.68   -0.44    0.11    0.44   -0.13    0.00    0.00       0.67    0.98   -0.28
#  35    1.58   -0.88    0.80    0.50   -0.14    0.00    0.00       1.86    1.03   -0.28
#  36    0.80   -0.72    0.24    1.00   -0.17    0.00    0.00       1.15    1.66   -0.28
#  37    0.66   -0.83    0.34    0.61   -0.16    0.00    0.00       0.63    1.05   -0.28
#  38    1.16   -0.37    0.05    0.33   -0.14    0.00    0.00       1.04    0.69   -0.28
#  39    1.08   -0.75    0.35    0.41   -0.15    0.00    0.00       0.94    0.79   -0.28
#  40    1.53   -0.71    0.24    0.74   -0.16    0.00    0.00       1.65    1.31   -0.28
@<TRIPOS>MOLECULE
E1156137
   40    41     0     0     0
SMALL
USER_CHARGES


@<TRIPOS>ATOM
      1 C1         20.9000   18.1635   60.1815 C.3       1            -0.0469
      2 N1         22.2747   18.3646   60.6587 N.4       1            -0.3848
      3 H1         22.8704   17.6422   60.2828 H         1             0.4252
      4 C2         22.7594   19.6787   60.2159 C.3       1            -0.0467
      5 C3         22.2973   18.3033   62.1263 C.3       1             0.0574
      6 C4         21.8001   16.9553   62.5806 C.ar      1             0.0420
      7 C5         22.6997   15.9203   62.7565 C.ar      1            -0.1286
      8 C6         22.2350   14.6840   63.1748 C.ar      1            -0.0969
      9 C7         20.8707   14.5329   63.4026 C.ar      1             0.1035
     10 O1         20.3687   13.3388   63.8142 O.3       1            -0.4819
     11 C8         20.0303   15.6184   63.2041 C.ar      1             0.1211
     12 C9         18.5505   15.4700   63.4468 C.3       1            -0.0694
     13 C10        18.2354   15.8151   64.9038 C.3       1            -0.0668
     14 C11        16.7556   15.6668   65.1464 C.ar      1            -0.0923
     15 C12        16.2926   15.3156   66.4008 C.ar      1            -0.1156
     16 C13        14.9351   15.1794   66.6235 C.ar      1            -0.1170
     17 C14        14.0405   15.3944   65.5913 C.ar      1            -0.1174
     18 C15        14.5033   15.7468   64.3377 C.ar      1            -0.1156
     19 C16        15.8607   15.8871   64.1163 C.ar      1            -0.1150
     20 N2         20.5135   16.7801   62.8101 N.ar      1            -0.4466
     21 H2         20.2565   18.9438   60.5877 H         1             0.1218
     22 H3         20.8831   18.2089   59.0925 H         1             0.1231
     23 H4         20.5403   17.1883   60.5100 H         1             0.1251
     24 H5         23.7794   19.8280   60.5701 H         1             0.1241
     25 H6         22.7426   19.7240   59.1270 H         1             0.1246
     26 H7         22.1159   20.4592   60.6221 H         1             0.1262
     27 H8         23.3174   18.4525   62.4804 H         1             0.1448
     28 H9         21.6539   19.0838   62.5325 H         1             0.1450
     29 H10        23.7522   16.0737   62.5698 H         1             0.1486
     30 H11        22.9149   13.8577   63.3201 H         1             0.1557
     31 H12        19.4104   13.3388   63.9438 H         1             0.4065
     32 H13        18.0047   16.1448   62.7875 H         1             0.0900
     33 H14        18.2503   14.4420   63.2438 H         1             0.0966
     34 H15        18.7812   15.1403   65.5631 H         1             0.0697
     35 H16        18.5357   16.8431   65.1067 H         1             0.0757
     36 H17        16.9917   15.1472   67.2068 H         1             0.1198
     37 H18        14.5735   14.9044   67.6033 H         1             0.1240
     38 H19        12.9799   15.2884   65.7659 H         1             0.1246
     39 H20        13.8044   15.9148   63.5317 H         1             0.1250
     40 H21        16.2220   16.1659   63.1374 H         1             0.1216
@<TRIPOS>BOND
     1    1    2 1 
     2    1   21 1 
     3    1   22 1 
     4    1   23 1 
     5    2    3 1 
     6    2    4 1 
     7    2    5 1 
     8    4   24 1 
     9    4   25 1 
    10    4   26 1 
    11    5    6 1 
    12    5   27 1 
    13    5   28 1 
    14    6   20 ar
    15    6    7 ar
    16    7    8 ar
    17    7   29 1 
    18    8    9 ar
    19    8   30 1 
    20    9   10 1 
    21    9   11 ar
    22   10   31 1 
    23   11   12 1 
    24   11   20 ar
    25   12   13 1 
    26   12   32 1 
    27   12   33 1 
    28   13   14 1 
    29   13   34 1 
    30   13   35 1 
    31   14   19 ar
    32   14   15 ar
    33   15   16 ar
    34   15   36 1 
    35   16   17 ar
    36   16   37 1 
    37   17   18 ar
    38   17   38 1 
    39   18   19 ar
    40   18   39 1 
    41   19   40 1 
##########                 Name:            E16209412
##########          Protonation:                  100
##########               SMILES:   CCc1cccc(c1)Nc2c3c(ncn2)n4c(n3)CCCC4
##########            Long Name:   N-(3-ethylphenyl)-6,7,8,9-tetrahydropurino[9,8-a]pyridin-4-amine
##########          FlexRecCode: 1
##########               Number:                  406
##########   Ligand Source File: /raidb/db2/rgc/leads-emolecules-300/leads-emolecules-2f-0000321.db2.gz
##########           GlobalRank: 797
##########                 Rank:                    1
##########               Setnum:                   49
##########             Matchnum:                 5986
##########                Cloud:                    1
##########        Electrostatic:            -7.214581
##########        Van der Waals:           -35.050518
##########  Ligand Polar Desolv:             4.475995
########## Ligand Apolar Desolv:            -5.586784
##########      Internal Energy:             0.000000
##########      Receptor Energy: 0.0
########## Receptor Desolvation:             0.000000
########## Receptor Hydrophobic:             0.000000
##########         Total Energy: -43.38
##########        Ligand Charge:             0.000000
##########            Arbitrary:    +999.9990
##########     heavy atom count:   22
##########           pose count:    1
##########        Ligand Energy:             0.000000
# num electro vdwattr vdwrepu polsolv apolsol rdesolv rhydroe totalscore fullpol fullapo
#   1   -1.35   -1.41    0.34   -0.06   -0.12    0.00    0.00      -2.60   -0.09   -0.19
#   2   -1.12   -1.70    0.47   -0.02   -0.17    0.00    0.00      -2.54   -0.03   -0.26
#   3   -0.89   -2.55    0.73    0.08   -0.23    0.00    0.00      -2.86    0.13   -0.36
#   4   -1.26   -3.43    1.90    0.14   -0.30    0.00    0.00      -2.94    0.22   -0.45
#   5   -0.53   -3.36    0.93    0.17   -0.31    0.00    0.00      -3.11    0.26   -0.47
#   6   -1.01   -2.38    0.45    0.42   -0.25    0.00    0.00      -2.78    0.66   -0.40
#   7    2.15   -2.28    0.61   -0.40   -0.41    0.00    0.00      -0.33   -0.65   -0.67
#   8   -8.03   -2.35    0.58    1.93    0.60    0.00    0.00      -7.26    3.34    1.04
#   9    4.12   -1.73    0.26   -1.86   -1.12    0.00    0.00      -0.33   -3.29   -1.98
#  10   -0.66   -1.66    0.38    0.47   -0.37    0.00    0.00      -1.85    0.98   -0.78
#  11   -3.14   -2.29    1.37    1.39    0.94    0.00    0.00      -1.73    3.09    2.09
#  12   -0.46   -1.39    0.21   -0.35   -0.92    0.00    0.00      -2.90   -0.80   -2.11
#  13    0.34   -0.84    0.07   -0.05   -0.11    0.00    0.00      -0.59   -0.11   -0.27
#  14    1.04   -0.89    0.12   -0.23   -0.09    0.00    0.00      -0.05   -0.63   -0.25
#  15    1.02   -0.60    0.05   -0.18   -0.07    0.00    0.00       0.22   -0.59   -0.25
#  16   -0.39   -0.81    0.10    0.03   -0.19    0.00    0.00      -1.26    0.08   -0.53
#  17    0.51   -1.35    0.26    0.63    0.53    0.00    0.00       0.58    1.56    1.31
#  18    0.68   -1.71    0.72   -0.81   -1.04    0.00    0.00      -2.17   -1.75   -2.24
#  19   -1.48   -1.90    0.40    2.01    1.19    0.00    0.00       0.22    3.53    2.08
#  20    1.34   -2.22    0.40   -0.99   -1.99    0.00    0.00      -3.45   -1.58   -3.17
#  21   -2.76   -2.09    0.45    2.19    0.89    0.00    0.00      -1.32    3.61    1.47
#  22   -2.25   -2.71    0.85    0.30   -0.27    0.00    0.00      -4.08    0.50   -0.46
#  23    0.44   -0.46    0.13    0.00   -0.13    0.00    0.00      -0.02   -0.01   -0.28
#  24    0.55   -0.55    0.47    0.01   -0.12    0.00    0.00       0.36    0.02   -0.28
#  25    0.47   -0.48    0.13    0.06   -0.13    0.00    0.00       0.05    0.12   -0.28
#  26    0.98   -0.95    1.17    0.02   -0.16    0.00    0.00       1.07    0.04   -0.28
#  27    1.01   -0.57    0.14    0.07   -0.17    0.00    0.00       0.49    0.12   -0.28
#  28    0.86   -0.91    0.50    0.07   -0.16    0.00    0.00       0.35    0.12   -0.28
#  29    0.04   -1.05    0.42   -0.03   -0.18    0.00    0.00      -0.80   -0.05   -0.28
#  30    0.89   -0.48    0.13   -0.33   -0.11    0.00    0.00       0.10   -0.67   -0.22
#  31    5.04   -0.06    0.00   -0.92    0.30    0.00    0.00       4.37   -1.79    0.59
#  32   -1.44   -0.19    0.01    0.11   -0.06    0.00    0.00      -1.57    0.51   -0.28
#  33   -0.95   -0.49    0.13    0.16   -0.11    0.00    0.00      -1.27    0.41   -0.28
#  34   -0.89   -0.20    0.02    0.20   -0.06    0.00    0.00      -0.94    1.01   -0.28
#  35   -0.40   -0.64    0.29    0.12   -0.11    0.00    0.00      -0.73    0.31   -0.28
#  36   -0.76   -0.17    0.01    0.06   -0.05    0.00    0.00      -0.91    0.34   -0.28
#  37   -0.68   -0.18    0.03    0.13   -0.04    0.00    0.00      -0.74    0.97   -0.28
#  38   -0.39   -0.21    0.02    0.01   -0.07    0.00    0.00      -0.64    0.04   -0.28
#  39   -0.14   -0.51    0.27    0.05   -0.09    0.00    0.00      -0.42    0.15   -0.28
#  40    0.79   -0.73    0.22    0.00   -0.17    0.00    0.00       0.11    0.00   -0.28
#  41    1.47   -0.75    0.44   -0.14   -0.16    0.00    0.00       0.86   -0.25   -0.28
@<TRIPOS>MOLECULE
E16209412
   41    44     0     0     0
SMALL
USER_CHARGES


@<TRIPOS>ATOM
      1 C1         12.7188   15.3488   65.2066 C.3       1            -0.1472
      2 C2         13.6971   16.4562   65.6035 C.3       1            -0.0854
      3 C3         15.0956   15.8971   65.6527 C.ar      1            -0.0621
      4 C4         15.5847   15.3613   66.8309 C.ar      1            -0.1337
      5 C5         16.8669   14.8473   66.8801 C.ar      1            -0.0968
      6 C6         17.6647   14.8673   65.7526 C.ar      1            -0.1157
      7 C7         17.1770   15.4045   64.5682 C.ar      1             0.1570
      8 N1         17.9813   15.4259   63.4254 N.pl3     1            -0.6366
      9 C8         19.2660   14.9110   63.4731 C.ar      1             0.4980
     10 C9         20.3773   15.7255   63.1970 C.ar      1            -0.0999
     11 N2         20.5419   17.0272   62.8571 N.2       1            -0.4628
     12 C10        21.8078   17.2808   62.7130 C.2       1             0.2807
     13 C11        22.4234   18.6104   62.3392 C.3       1            -0.0383
     14 C12        23.9188   18.5587   62.6755 C.3       1            -0.1280
     15 C13        24.5224   17.2754   62.0978 C.3       1            -0.1373
     16 C14        23.9980   16.0665   62.8799 C.3       1             0.1109
     17 N3         22.5364   16.1484   62.9530 N.pl3     1            -0.4682
     18 C15        21.6574   15.1472   63.2620 C.ar      1             0.3045
     19 N4         21.7674   13.8609   63.5799 N.ar      1            -0.5528
     20 C16        20.6976   13.1367   63.8307 C.ar      1             0.3582
     21 N5         19.4762   13.6368   63.7865 N.ar      1            -0.5738
     22 C17        15.8857   15.9151   64.5205 C.ar      1            -0.1449
     23 H1         11.7072   15.7533   65.1710 H         1             0.0551
     24 H2         12.9893   14.9598   64.2250 H         1             0.0565
     25 H3         12.7629   14.5446   65.9411 H         1             0.0583
     26 H4         13.6530   17.2604   64.8691 H         1             0.0710
     27 H5         13.4266   16.8454   66.5852 H         1             0.0736
     28 H6         14.9630   15.3467   67.7138 H         1             0.1216
     29 H7         17.2456   14.4301   67.8014 H         1             0.1252
     30 H8         18.6665   14.4659   65.7921 H         1             0.1322
     31 H9         17.6397   15.8012   62.5988 H         1             0.4264
     32 H10        22.2926   18.7890   61.2720 H         1             0.1002
     33 H11        21.9463   19.4090   62.9074 H         1             0.1050
     34 H12        24.4196   19.4240   62.2412 H         1             0.0895
     35 H13        24.0489   18.5671   63.7576 H         1             0.0738
     36 H14        24.2390   17.1804   61.0496 H         1             0.0780
     37 H15        25.6086   17.3166   62.1782 H         1             0.0959
     38 H16        24.2873   15.1478   62.3696 H         1             0.0953
     39 H17        24.4151   16.0741   63.8869 H         1             0.0874
     40 H18        20.8235   12.0948   64.0857 H         1             0.2068
     41 H19        15.5021   16.3296   63.5999 H         1             0.1225
@<TRIPOS>BOND
     1    1    2 1 
     2    1   23 1 
     3    1   24 1 
     4    1   25 1 
     5    2    3 1 
     6    2   26 1 
     7    2   27 1 
     8    3   22 ar
     9    3    4 ar
    10    4    5 ar
    11    4   28 1 
    12    5    6 ar
    13    5   29 1 
    14    6    7 ar
    15    6   30 1 
    16    7    8 1 
    17    7   22 ar
    18    8    9 1 
    19    8   31 1 
    20    9   21 ar
    21    9   10 ar
    22   10   18 ar
    23   10   11 1 
    24   11   12 2 
    25   12   17 1 
    26   12   13 1 
    27   13   14 1 
    28   13   32 1 
    29   13   33 1 
    30   14   15 1 
    31   14   34 1 
    32   14   35 1 
    33   15   16 1 
    34   15   36 1 
    35   15   37 1 
    36   16   17 1 
    37   16   38 1 
    38   16   39 1 
    39   17   18 1 
    40   18   19 ar
    41   19   20 ar
    42   20   21 ar
    43   20   40 1 
    44   22   41 1 
##########                 Name:            E14273609
##########          Protonation:                  100
##########               SMILES:   c1ccc(cc1)Nc2[nH]c(=O)cc(n2)c3ccc(cc3)Cl
##########            Long Name:   2-anilino-4-(4-chlorophenyl)-1H-pyrimidin-6-one
##########          FlexRecCode: 1
##########               Number:                  271
##########   Ligand Source File: /raidb/db2/rgc/leads-emolecules-300/leads-emolecules-lt300-2i-0000212.db2.gz
##########           GlobalRank: 806
##########                 Rank:                    1
##########               Setnum:                   20
##########             Matchnum:                 3919
##########                Cloud:                    1
##########        Electrostatic:            -8.549953
##########        Van der Waals:           -34.057396
##########  Ligand Polar Desolv:             4.806504
########## Ligand Apolar Desolv:            -5.554736
##########      Internal Energy:             0.000000
##########      Receptor Energy: 0.0
########## Receptor Desolvation:             0.000000
########## Receptor Hydrophobic:             0.000000
##########         Total Energy: -43.36
##########        Ligand Charge:             0.000000
##########            Arbitrary:    +999.9990
##########     heavy atom count:   21
##########           pose count:    1
##########        Ligand Energy:             0.000000
# num electro vdwattr vdwrepu polsolv apolsol rdesolv rhydroe totalscore fullpol fullapo
#   1   -0.70   -4.72    1.48    0.04   -0.66    0.00    0.00      -4.55    0.06   -0.98
#   2   -0.21   -2.42    0.65    0.01   -0.19    0.00    0.00      -2.16    0.01   -0.29
#   3   -1.76   -2.89    1.01   -0.02   -0.28    0.00    0.00      -3.94   -0.04   -0.46
#   4   -0.89   -2.68    0.76    0.00   -0.27    0.00    0.00      -3.08    0.00   -0.46
#   5   -0.65   -2.35    0.81    0.05   -0.26    0.00    0.00      -2.39    0.08   -0.41
#   6   -0.45   -2.97    1.03    0.01   -0.28    0.00    0.00      -2.66    0.01   -0.44
#   7   -0.82   -3.03    0.88   -0.01   -0.30    0.00    0.00      -3.28   -0.02   -0.46
#   8    2.36   -1.88    0.37   -0.31   -0.44    0.00    0.00       0.10   -0.52   -0.74
#   9   -1.41   -2.73    1.38    0.73   -0.27    0.00    0.00      -2.30    1.20   -0.44
#  10    1.97   -2.18    0.36   -1.53   -0.41    0.00    0.00      -1.79   -2.44   -0.65
#  11   -2.26   -3.84    1.47    3.79    0.31    0.00    0.00      -0.54    5.64    0.46
#  12   -2.06   -1.79    0.51   -0.05    0.97    0.00    0.00      -2.41   -0.08    1.70
#  13    3.46   -1.65    0.37    0.27   -2.23    0.00    0.00       0.21    0.56   -4.66
#  14   -1.38   -1.57    0.27   -1.00    0.46    0.00    0.00      -3.21   -2.27    1.05
#  15   -0.27   -1.55    0.37    0.13   -0.30    0.00    0.00      -1.62    0.29   -0.67
#  16    0.83   -1.79    0.43   -0.05   -0.18    0.00    0.00      -0.76   -0.12   -0.40
#  17    1.64   -2.03    0.59   -0.09   -0.22    0.00    0.00      -0.12   -0.20   -0.47
#  18    2.38   -2.00    0.39   -0.19   -0.26    0.00    0.00       0.31   -0.34   -0.47
#  19    1.29   -2.53    0.80   -0.19   -0.26    0.00    0.00      -0.89   -0.35   -0.47
#  20    0.55   -2.39    1.32   -0.22   -0.22    0.00    0.00      -0.94   -0.47   -0.46
#  21   -6.37   -1.91    0.44    0.24    0.62    0.00    0.00      -6.98    0.46    1.18
#  22    1.30   -1.00    1.42    0.18   -0.15    0.00    0.00       1.75    0.33   -0.28
#  23    2.10   -0.63    0.19    0.04   -0.15    0.00    0.00       1.56    0.08   -0.27
#  24    0.13   -0.73    0.28    0.13   -0.13    0.00    0.00      -0.32    0.22   -0.22
#  25    0.28   -0.78    0.23    0.18   -0.17    0.00    0.00      -0.27    0.29   -0.28
#  26    0.27   -1.28    2.92   -0.23   -0.12    0.00    0.00       1.56   -0.41   -0.22
#  27    0.39   -0.03    0.00    0.53    0.23    0.00    0.00       1.13    1.35    0.59
#  28    0.41   -0.02    0.00    1.09    0.20    0.00    0.00       1.66    3.28    0.59
#  29   -0.87   -0.43    0.07   -0.01   -0.09    0.00    0.00      -1.32   -0.02   -0.22
#  30   -2.72   -0.68    0.60    0.17   -0.11    0.00    0.00      -2.74    0.45   -0.28
#  31   -3.06   -0.64    0.36    0.29   -0.14    0.00    0.00      -3.19    0.59   -0.28
#  32   -1.91   -1.07    1.34    0.43   -0.16    0.00    0.00      -1.37    0.76   -0.28
#  33   -0.11   -0.92    1.94    0.41   -0.12    0.00    0.00       1.19    0.92   -0.28
@<TRIPOS>MOLECULE
E14273609
   33    35     0     0     0
SMALL
USER_CHARGES


@<TRIPOS>ATOM
      1 Cl1        13.2683   15.9949   66.3150 Cl        1            -0.0630
      2 C1         14.8651   15.6259   65.7424 C.ar      1            -0.0166
      3 C2         15.2750   16.0811   64.5005 C.ar      1            -0.1192
      4 C3         16.5427   15.7908   64.0407 C.ar      1            -0.0580
      5 C4         17.4121   15.0372   64.8290 C.ar      1            -0.0574
      6 C5         16.9942   14.5813   66.0791 C.ar      1            -0.0738
      7 C6         15.7262   14.8822   66.5317 C.ar      1            -0.1160
      8 C7         18.7746   14.7219   64.3402 C.2       1             0.2631
      9 C8         19.1669   13.4017   64.1741 C.2       1            -0.3288
     10 C9         20.4643   13.1384   63.7094 C.2       1             0.5454
     11 O1         20.8457   11.9900   63.5504 O.2       1            -0.5350
     12 N1         21.2829   14.1771   63.4411 N.am      1            -0.6494
     13 C10        20.8485   15.4545   63.6216 C.2       1             0.6375
     14 N2         21.6951   16.4966   63.3434 N.pl3     1            -0.6411
     15 C11        21.3454   17.4421   62.3740 C.ar      1             0.1519
     16 C12        21.7983   18.7507   62.4829 C.ar      1            -0.1068
     17 C13        21.4516   19.6818   61.5238 C.ar      1            -0.1023
     18 C14        20.6541   19.3128   60.4560 C.ar      1            -0.1274
     19 C15        20.2016   18.0108   60.3446 C.ar      1            -0.1002
     20 C16        20.5494   17.0734   61.2973 C.ar      1            -0.1397
     21 N3         19.6315   15.7108   64.0513 N.2       1            -0.5722
     22 H1         14.6008   16.6641   63.8906 H         1             0.1392
     23 H2         16.8613   16.1459   63.0718 H         1             0.1469
     24 H3         17.6633   13.9970   66.6935 H         1             0.1414
     25 H4         15.4031   14.5333   67.5014 H         1             0.1406
     26 H5         18.4875   12.5927   64.3983 H         1             0.1576
     27 H6         22.1830   14.0131   63.1191 H         1             0.4142
     28 H7         22.5366   16.5780   63.8190 H         1             0.4235
     29 H8         22.4205   19.0397   63.3170 H         1             0.1393
     30 H9         21.8033   20.6995   61.6078 H         1             0.1277
     31 H10        20.3838   20.0430   59.7077 H         1             0.1250
     32 H11        19.5789   17.7257   59.5095 H         1             0.1280
     33 H12        20.1994   16.0556   61.2073 H         1             0.1256
@<TRIPOS>BOND
     1    1    2 1 
     2    2    7 ar
     3    2    3 ar
     4    3    4 ar
     5    3   22 1 
     6    4    5 ar
     7    4   23 1 
     8    5    6 ar
     9    5    8 1 
    10    6    7 ar
    11    6   24 1 
    12    7   25 1 
    13    8   21 1 
    14    8    9 2 
    15    9   10 1 
    16    9   26 1 
    17   10   11 2 
    18   10   12 am
    19   12   13 1 
    20   12   27 1 
    21   13   14 1 
    22   13   21 2 
    23   14   15 1 
    24   14   28 1 
    25   15   20 ar
    26   15   16 ar
    27   16   17 ar
    28   16   29 1 
    29   17   18 ar
    30   17   30 1 
    31   18   19 ar
    32   18   31 1 
    33   19   20 ar
    34   19   32 1 
    35   20   33 1 
##########                 Name:            E24871202
##########          Protonation:                   46
##########               SMILES:   c1cc2c(ccc(c2nc1)O)CN3CC[NH+](CC3)CCO
##########            Long Name:   5-[[4-(2-hydroxyethyl)piperazin-4-ium-1-yl]methyl]quinolin-8-ol
##########          FlexRecCode: 1
##########               Number:                  235
##########   Ligand Source File: /raidb/db2/rgc/leads-emolecules-300/leads-emolecules-2c-0000012.db2.gz
##########           GlobalRank: 819
##########                 Rank:                    1
##########               Setnum:                  215
##########             Matchnum:                 4958
##########                Cloud:                    1
##########        Electrostatic:           -28.827518
##########        Van der Waals:           -26.192114
##########  Ligand Polar Desolv:            11.031751
########## Ligand Apolar Desolv:             0.656238
##########      Internal Energy:             0.000000
##########      Receptor Energy: 0.0
########## Receptor Desolvation:             0.000000
########## Receptor Hydrophobic:             0.000000
##########         Total Energy: -43.33
##########        Ligand Charge:             1.000000
##########            Arbitrary:    +999.9990
##########     heavy atom count:   21
##########           pose count:    1
##########        Ligand Energy:             0.000000
# num electro vdwattr vdwrepu polsolv apolsol rdesolv rhydroe totalscore fullpol fullapo
#   1    8.96   -2.11    1.81   -4.78    0.56    0.00    0.00       4.45  -14.29    1.68
#   2   -0.73   -0.72    0.10    0.28   -0.04    0.00    0.00      -1.12    0.92   -0.14
#   3    0.25   -0.63    0.09   -0.02   -0.09    0.00    0.00      -0.41   -0.07   -0.32
#   4    9.44   -1.65    0.96   -4.08    0.16    0.00    0.00       4.84  -10.88    0.43
#   5  -17.13   -0.15    0.06    5.54    0.20    0.00    0.00     -11.48   14.18    0.52
#   6    0.06   -1.09    0.20    0.16   -0.18    0.00    0.00      -0.86    0.37   -0.42
#   7   -0.32   -1.10    0.21    0.18   -0.17    0.00    0.00      -1.19    0.42   -0.39
#   8    4.20   -1.10    0.08   -5.71    1.27    0.00    0.00      -1.26  -13.40    2.98
#   9   -0.10   -1.25    0.30    0.96   -0.15    0.00    0.00      -0.24    2.11   -0.33
#  10   -0.19   -1.68    0.39   -0.22   -0.14    0.00    0.00      -1.85   -0.50   -0.33
#  11   -0.55   -1.68    0.36   -0.66   -0.20    0.00    0.00      -2.72   -1.42   -0.42
#  12   -0.71   -1.64    0.28   -0.63   -0.27    0.00    0.00      -2.97   -1.07   -0.46
#  13    0.54   -2.07    0.39   -0.04   -0.19    0.00    0.00      -1.37   -0.07   -0.31
#  14   -2.37   -3.50    1.42   -0.78    0.77    0.00    0.00      -4.47   -1.18    1.16
#  15    0.12   -2.21    0.68    0.02   -0.38    0.00    0.00      -1.77    0.03   -0.73
#  16    0.68   -4.02    3.16   -0.74    1.02    0.00    0.00       0.10   -1.41    1.95
#  17   -0.39   -3.09    1.94    0.21   -0.44    0.00    0.00      -1.77    0.47   -0.97
#  18    0.26   -2.40    1.26   -0.83   -0.19    0.00    0.00      -1.89   -2.08   -0.47
#  19    0.08   -2.28    1.21   -0.08   -0.18    0.00    0.00      -1.25   -0.20   -0.44
#  20   -0.03   -1.79    0.45   -0.46   -0.18    0.00    0.00      -2.01   -1.02   -0.40
#  21   -0.23   -0.59    0.04    0.12   -0.13    0.00    0.00      -0.79    0.35   -0.38
#  22    0.12   -1.05    0.27    0.11   -0.15    0.00    0.00      -0.70    0.31   -0.41
#  23  -10.55   -0.13    0.04    3.81    0.48    0.00    0.00      -6.35    9.74    1.24
#  24   -0.57   -0.13    0.01    0.31   -0.03    0.00    0.00      -0.40    2.50   -0.23
#  25   -1.95   -0.37    0.16    0.45   -0.08    0.00    0.00      -1.79    1.66   -0.28
#  26   -1.90   -0.15    0.02    0.62   -0.02    0.00    0.00      -1.43    4.78   -0.15
#  27   -1.62   -0.16    0.01    0.74   -0.05    0.00    0.00      -1.08    4.54   -0.28
#  28   -3.88   -0.51    0.22    2.12   -0.11    0.00    0.00      -2.16    5.58   -0.28
#  29   -3.37   -0.39    0.08    1.63   -0.11    0.00    0.00      -2.16    4.22   -0.28
#  30   -0.84   -0.46    0.18    0.80   -0.06    0.00    0.00      -0.38    2.59   -0.21
#  31   -1.55   -0.65    0.38    1.23   -0.11    0.00    0.00      -0.70    3.15   -0.28
#  32   -0.12   -0.47    0.09    0.86   -0.11    0.00    0.00       0.25    2.10   -0.27
#  33    0.20   -0.81    1.00    1.01   -0.11    0.00    0.00       1.30    2.27   -0.24
#  34    1.71   -0.41    0.14    1.26   -0.10    0.00    0.00       2.60    3.48   -0.28
#  35    0.82   -0.33    0.05    0.57   -0.12    0.00    0.00       0.99    1.37   -0.28
#  36    0.27   -0.06    0.00    1.34    0.77    0.00    0.00       2.33    2.12    1.22
#  37   -0.57   -0.57    0.27    0.48   -0.11    0.00    0.00      -0.50    1.20   -0.28
#  38   -0.25   -0.36    0.11    0.74   -0.08    0.00    0.00       0.16    2.74   -0.28
#  39   -0.53   -0.49    0.23    1.14   -0.07    0.00    0.00       0.28    4.02   -0.23
#  40   -0.55   -0.16    0.01    0.38   -0.03    0.00    0.00      -0.35    2.70   -0.22
#  41   -0.84   -0.20    0.03    0.28   -0.05    0.00    0.00      -0.78    1.43   -0.24
#  42   -2.64   -0.65    0.64    1.43   -0.11    0.00    0.00      -1.34    3.57   -0.28
#  43   -2.06   -0.31    0.07    1.28   -0.07    0.00    0.00      -1.09    4.45   -0.23
@<TRIPOS>MOLECULE
E24871202
   43    45     0     0     0
SMALL
USER_CHARGES


@<TRIPOS>ATOM
      1 O1         24.6060   21.9895   59.1470 O.3       1            -0.5799
      2 C1         24.5074   21.6372   60.5285 C.3       1             0.0471
      3 C2         24.6740   20.1241   60.6821 C.3       1            -0.0150
      4 N1         23.6198   19.4361   59.9248 N.4       1            -0.3813
      5 H1         23.6896   19.6850   58.9496 H         1             0.4356
      6 C3         22.3048   19.8394   60.4400 C.3       1            -0.0025
      7 C4         22.2055   19.4787   61.9239 C.3       1             0.0231
      8 N2         22.3913   18.0298   62.0864 N.3       1            -0.5337
      9 C5         22.2464   17.6351   63.4940 C.3       1             0.0981
     10 C6         21.9520   16.1593   63.5741 C.ar      1            -0.0874
     11 C7         20.6642   15.7166   63.5498 C.ar      1            -0.0870
     12 C8         20.3730   14.3574   63.6233 C.ar      1            -0.1413
     13 C9         21.3699   13.4287   63.7213 C.ar      1             0.1535
     14 O2         21.0668   12.1063   63.7915 O.3       1            -0.4815
     15 C10        22.7156   13.8501   63.7487 C.ar      1             0.0983
     16 N3         23.7133   12.9666   63.8435 N.ar      1            -0.4580
     17 C11        24.9656   13.3529   63.8691 C.ar      1             0.1318
     18 C12        25.3191   14.6990   63.7995 C.ar      1            -0.1655
     19 C13        24.3480   15.6542   63.7013 C.ar      1            -0.0548
     20 C14        23.0045   15.2346   63.6683 C.ar      1            -0.0681
     21 C15        23.6937   17.6074   61.5523 C.3       1             0.0239
     22 C16        23.7804   17.9834   60.0717 C.3       1            -0.0070
     23 H2         23.9392   21.5705   58.5858 H         1             0.4102
     24 H3         25.2896   22.1479   61.0903 H         1             0.0714
     25 H4         23.5313   21.9360   60.9108 H         1             0.0942
     26 H5         25.6500   19.8253   60.2997 H         1             0.1390
     27 H6         24.5987   19.8555   61.7357 H         1             0.1391
     28 H7         22.1813   20.9155   60.3187 H         1             0.1372
     29 H8         21.5227   19.3193   59.8866 H         1             0.1401
     30 H9         22.9788   20.0091   62.4796 H         1             0.0626
     31 H10        21.2241   19.7643   62.3027 H         1             0.1242
     32 H11        23.1714   17.8507   64.0288 H         1             0.0618
     33 H12        21.4268   18.1941   63.9455 H         1             0.0990
     34 H13        19.8573   16.4303   63.4728 H         1             0.1293
     35 H14        19.3434   14.0322   63.6028 H         1             0.1404
     36 H15        20.1186   11.9181   63.7651 H         1             0.3997
     37 H16        25.7440   12.6083   63.9464 H         1             0.1638
     38 H17        26.3598   14.9865   63.8235 H         1             0.1405
     39 H18        24.6037   16.7021   63.6467 H         1             0.1387
     40 H19        24.4915   18.1069   62.1018 H         1             0.0619
     41 H20        23.7981   16.5278   61.6600 H         1             0.1240
     42 H21        22.9909   17.4730   59.5203 H         1             0.1404
     43 H22        24.7513   17.6837   59.6773 H         1             0.1344
@<TRIPOS>BOND
     1    1    2 1 
     2    1   23 1 
     3    2    3 1 
     4    2   24 1 
     5    2   25 1 
     6    3    4 1 
     7    3   26 1 
     8    3   27 1 
     9    4    5 1 
    10    4   22 1 
    11    4    6 1 
    12    6    7 1 
    13    6   28 1 
    14    6   29 1 
    15    7    8 1 
    16    7   30 1 
    17    7   31 1 
    18    8    9 1 
    19    8   21 1 
    20    9   10 1 
    21    9   32 1 
    22    9   33 1 
    23   10   20 ar
    24   10   11 ar
    25   11   12 ar
    26   11   34 1 
    27   12   13 ar
    28   12   35 1 
    29   13   14 1 
    30   13   15 ar
    31   14   36 1 
    32   15   20 ar
    33   15   16 ar
    34   16   17 ar
    35   17   18 ar
    36   17   37 1 
    37   18   19 ar
    38   18   38 1 
    39   19   20 ar
    40   19   39 1 
    41   21   22 1 
    42   21   40 1 
    43   21   41 1 
    44   22   42 1 
    45   22   43 1 
##########                 Name:             E2465773
##########          Protonation:                  100
##########               SMILES:   c1ccc(cc1)n2cc(c(n2)c3cccc(c3)Cl)C=O
##########            Long Name:   3-(3-chlorophenyl)-1-phenyl-pyrazole-4-carbaldehyde
##########          FlexRecCode: 1
##########               Number:                  404
##########   Ligand Source File: /raidb/db2/rgc/leads-emolecules-300/leads-lt300-emolecules-1-0000152.db2.gz
##########           GlobalRank: 833
##########                 Rank:                    1
##########               Setnum:                   32
##########             Matchnum:                 5345
##########                Cloud:                    1
##########        Electrostatic:            -9.261386
##########        Van der Waals:           -34.198246
##########  Ligand Polar Desolv:             4.978554
########## Ligand Apolar Desolv:            -4.816893
##########      Internal Energy:             0.000000
##########      Receptor Energy: 0.0
########## Receptor Desolvation:             0.000000
########## Receptor Hydrophobic:             0.000000
##########         Total Energy: -43.3
##########        Ligand Charge:             0.000000
##########            Arbitrary:    +999.9990
##########     heavy atom count:   20
##########           pose count:    1
##########        Ligand Energy:             0.000000
# num electro vdwattr vdwrepu polsolv apolsol rdesolv rhydroe totalscore fullpol fullapo
#   1   -0.63   -5.17    2.43    0.11   -0.61    0.00    0.00      -3.88    0.18   -0.98
#   2   -0.45   -2.65    1.24    0.04   -0.18    0.00    0.00      -1.99    0.06   -0.29
#   3   -1.14   -2.53    0.75    0.14   -0.26    0.00    0.00      -3.04    0.23   -0.44
#   4   -0.13   -2.08    0.37    0.02   -0.25    0.00    0.00      -2.07    0.03   -0.40
#   5   -0.62   -2.83    0.58   -0.13   -0.26    0.00    0.00      -3.25   -0.21   -0.41
#   6   -0.36   -3.70    1.16   -0.24   -0.32    0.00    0.00      -3.44   -0.35   -0.47
#   7   -0.78   -2.89    0.83   -0.12   -0.29    0.00    0.00      -3.26   -0.18   -0.46
#   8    1.91   -1.82    0.30   -0.30   -0.44    0.00    0.00      -0.34   -0.53   -0.77
#   9   -4.76   -3.11    2.77    0.90    0.56    0.00    0.00      -3.64    1.76    1.10
#  10   -1.85   -1.68    0.34    0.55    0.33    0.00    0.00      -2.31    1.21    0.72
#  11    0.53   -1.78    0.82   -0.14   -0.48    0.00    0.00      -1.04   -0.26   -0.90
#  12   -1.93   -1.68    0.23    0.41   -0.26    0.00    0.00      -3.23    0.69   -0.44
#  13    1.07   -2.93    1.12   -0.11   -0.15    0.00    0.00      -1.00   -0.18   -0.23
#  14   -1.33   -3.47    1.04    1.54    0.29    0.00    0.00      -1.93    2.30    0.43
#  15   -0.14   -1.48    0.31   -0.13   -0.31    0.00    0.00      -1.74   -0.29   -0.71
#  16    0.48   -1.24    0.11   -0.02   -0.18    0.00    0.00      -0.84   -0.05   -0.44
#  17    0.80   -1.01    0.07   -0.08   -0.17    0.00    0.00      -0.40   -0.21   -0.47
#  18    1.84   -0.99    0.06   -0.10   -0.19    0.00    0.00       0.62   -0.25   -0.47
#  19    1.58   -1.34    0.12    0.00   -0.22    0.00    0.00       0.14   -0.01   -0.47
#  20    0.83   -1.70    0.47    0.19   -0.21    0.00    0.00      -0.42    0.40   -0.45
#  21    2.02   -0.55    0.12   -0.28   -0.15    0.00    0.00       1.16   -0.52   -0.28
#  22    0.74   -0.82    0.51    0.53   -0.13    0.00    0.00       0.83    0.90   -0.22
#  23   -0.40   -1.19    0.63    1.01   -0.19    0.00    0.00      -0.14    1.53   -0.28
#  24    1.00   -0.58    0.12    0.33   -0.15    0.00    0.00       0.73    0.63   -0.28
#  25    0.21   -0.48    0.56    0.08   -0.08    0.00    0.00       0.29    0.25   -0.24
#  26    0.01   -0.90    0.58    0.37   -0.12    0.00    0.00      -0.06    0.67   -0.22
#  27   -0.12   -0.32    0.05    0.14   -0.07    0.00    0.00      -0.33    0.44   -0.23
#  28   -1.14   -0.24    0.04    0.19   -0.06    0.00    0.00      -1.20    0.96   -0.28
#  29   -2.53   -0.18    0.01    0.16   -0.05    0.00    0.00      -2.60    0.84   -0.28
#  30   -3.18   -0.38    0.08    0.14   -0.11    0.00    0.00      -3.45    0.36   -0.28
#  31   -0.82   -0.45    0.16   -0.23   -0.11    0.00    0.00      -1.45   -0.55   -0.26
@<TRIPOS>MOLECULE
E2465773
   31    33     0     0     0
SMALL
USER_CHARGES


@<TRIPOS>ATOM
      1 Cl1        13.7849   15.9771   64.4629 Cl        1            -0.0603
      2 C1         15.2938   15.5132   65.1851 C.ar      1            -0.0348
      3 C2         16.4681   15.6354   64.4680 C.ar      1            -0.0770
      4 C3         17.6785   15.2627   65.0499 C.ar      1            -0.0105
      5 C4         17.6964   14.7683   66.3536 C.ar      1            -0.0917
      6 C5         16.5174   14.6504   67.0607 C.ar      1            -0.1024
      7 C6         15.3191   15.0266   66.4808 C.ar      1            -0.0953
      8 C7         18.9420   15.3910   64.2855 C.2       1             0.1645
      9 N1         19.4496   16.4986   63.7950 N.2       1            -0.2709
     10 N2         20.6493   16.2043   63.1415 N.pl3     1            -0.3040
     11 C8         20.8991   14.8873   63.2235 C.2       1             0.1357
     12 C9         19.8672   14.3046   63.9382 C.2       1            -0.3222
     13 C10        19.7247   12.8870   64.2781 C.2       1             0.4131
     14 O1         20.5696   12.0908   63.9256 O.2       1            -0.4700
     15 C11        21.4675   17.1415   62.4977 C.ar      1             0.1418
     16 C12        22.7808   17.3199   62.9123 C.ar      1            -0.1358
     17 C13        23.5852   18.2443   62.2752 C.ar      1            -0.0919
     18 C14        23.0833   18.9925   61.2251 C.ar      1            -0.1204
     19 C15        21.7766   18.8171   60.8104 C.ar      1            -0.0955
     20 C16        20.9689   17.8901   61.4397 C.ar      1            -0.1115
     21 H1         16.4483   16.0186   63.4584 H         1             0.1397
     22 H2         18.6316   14.4778   66.8090 H         1             0.1362
     23 H3         16.5306   14.2674   68.0703 H         1             0.1426
     24 H4         14.3994   14.9368   67.0398 H         1             0.1396
     25 H5         21.7550   14.3750   62.8093 H         1             0.1949
     26 H6         18.8675   12.5506   64.8425 H         1             0.1085
     27 H7         23.1727   16.7365   63.7324 H         1             0.1325
     28 H8         24.6064   18.3837   62.5975 H         1             0.1369
     29 H9         23.7150   19.7142   60.7288 H         1             0.1325
     30 H10        21.3879   19.4028   59.9904 H         1             0.1357
     31 H11        19.9491   17.7508   61.1122 H         1             0.1399
@<TRIPOS>BOND
     1    1    2 1 
     2    2    7 ar
     3    2    3 ar
     4    3    4 ar
     5    3   21 1 
     6    4    5 ar
     7    4    8 1 
     8    5    6 ar
     9    5   22 1 
    10    6    7 ar
    11    6   23 1 
    12    7   24 1 
    13    8   12 1 
    14    8    9 2 
    15    9   10 1 
    16   10   11 1 
    17   10   15 1 
    18   11   12 2 
    19   11   25 1 
    20   12   13 1 
    21   13   14 2 
    22   13   26 1 
    23   15   20 ar
    24   15   16 ar
    25   16   17 ar
    26   16   27 1 
    27   17   18 ar
    28   17   28 1 
    29   18   19 ar
    30   18   29 1 
    31   19   20 ar
    32   19   30 1 
    33   20   31 1 
##########                 Name:            E45930165
##########          Protonation:                   53
##########               SMILES:   C[NH+]1CCN(CC1)/C=N/N=C(\C=N/O)/c2ccccc2
##########            Long Name:   [(E)-(4-methylpiperazin-4-ium-1-yl)methylenehydrazono]-2-phenyl-acetaldehyde
##########          FlexRecCode: 1
##########               Number:                  690
##########   Ligand Source File: /raidb/db2/rgc/leads-emolecules-300/leads-emolecules-lt300-1g-0000263.db2.gz
##########           GlobalRank: 837
##########                 Rank:                    1
##########               Setnum:                   30
##########             Matchnum:                  424
##########                Cloud:                    1
##########        Electrostatic:           -19.592245
##########        Van der Waals:           -29.484661
##########  Ligand Polar Desolv:             8.985954
########## Ligand Apolar Desolv:            -3.184989
##########      Internal Energy:             0.000000
##########      Receptor Energy: 0.0
########## Receptor Desolvation:             0.000000
########## Receptor Hydrophobic:             0.000000
##########         Total Energy: -43.28
##########        Ligand Charge:             1.000000
##########            Arbitrary:    +999.9990
##########     heavy atom count:   20
##########           pose count:    1
##########        Ligand Energy:             0.000000
# num electro vdwattr vdwrepu polsolv apolsol rdesolv rhydroe totalscore fullpol fullapo
#   1    0.79   -0.75    0.11   -0.44   -0.15    0.00    0.00      -0.45   -1.39   -0.48
#   2    5.73   -0.77    0.05   -4.14    0.14    0.00    0.00       1.00  -11.92    0.39
#   3   -6.46   -0.01    0.00    2.40    0.08    0.00    0.00      -3.99   16.43    0.55
#   4    0.20   -1.18    0.28    0.02   -0.14    0.00    0.00      -0.82    0.05   -0.40
#   5   -0.63   -1.16    0.31    0.83   -0.19    0.00    0.00      -0.84    2.18   -0.49
#   6    2.42   -1.21    0.09   -5.24    0.70    0.00    0.00      -3.24  -12.54    1.67
#   7   -0.95   -0.78    0.10    0.83   -0.21    0.00    0.00      -1.01    1.95   -0.48
#   8    0.37   -0.79    0.06    0.19   -0.17    0.00    0.00      -0.34    0.44   -0.40
#   9    1.00   -2.22    0.96    2.88   -1.28    0.00    0.00       1.36    6.32   -2.80
#  10   -3.47   -2.17    0.82   -2.17    0.27    0.00    0.00      -6.72   -4.71    0.58
#  11   -3.96   -2.94    1.95   -0.79    0.46    0.00    0.00      -5.27   -1.56    0.91
#  12    2.24   -1.79    0.26    0.11   -0.41    0.00    0.00       0.41    0.19   -0.73
#  13    0.77   -2.83    1.60    0.39   -0.51    0.00    0.00      -0.58    0.69   -0.89
#  14   -1.26   -2.92    1.30   -1.28    0.72    0.00    0.00      -3.44   -2.09    1.18
#  15   -1.00   -2.22    0.46   -1.91    0.29    0.00    0.00      -4.38   -2.98    0.45
#  16   -0.66   -2.12    0.44   -0.13   -0.26    0.00    0.00      -2.72   -0.21   -0.41
#  17   -1.29   -2.66    1.07   -0.43   -0.26    0.00    0.00      -3.57   -0.71   -0.44
#  18   -1.40   -2.80    1.68   -0.50   -0.29    0.00    0.00      -3.31   -0.81   -0.47
#  19   -0.63   -3.18    0.95   -0.50   -0.30    0.00    0.00      -3.66   -0.78   -0.47
#  20   -0.30   -3.89    1.30   -0.46   -0.32    0.00    0.00      -3.67   -0.68   -0.47
#  21   -0.51   -2.82    0.64   -0.35   -0.29    0.00    0.00      -3.32   -0.55   -0.46
#  22   -2.26   -0.54    0.62    0.95   -0.08    0.00    0.00      -1.30    3.50   -0.28
#  23   -1.34   -0.12    0.01    0.66   -0.04    0.00    0.00      -0.83    4.99   -0.28
#  24   -2.99   -0.36    0.15    1.17   -0.08    0.00    0.00      -2.11    4.36   -0.28
#  25   -0.98   -0.42    0.19    1.81   -0.07    0.00    0.00       0.53    7.05   -0.28
#  26   -1.01   -0.74    0.36    1.51   -0.11    0.00    0.00       0.01    3.91   -0.28
#  27   -0.64   -0.21    0.03    0.69   -0.05    0.00    0.00      -0.18    3.94   -0.28
#  28   -0.48   -0.96    0.92    1.30   -0.11    0.00    0.00       0.66    3.15   -0.27
#  29   -1.00   -0.36    0.16    0.82   -0.08    0.00    0.00      -0.47    2.94   -0.28
#  30   -0.92   -0.28    0.04    0.23   -0.08    0.00    0.00      -1.00    0.73   -0.24
#  31   -2.16   -0.41    0.12    1.10   -0.09    0.00    0.00      -1.45    3.31   -0.28
#  32   -3.38   -0.31    0.04    1.86   -0.09    0.00    0.00      -1.88    5.58   -0.28
#  33    0.59   -0.94    1.23    0.88   -0.12    0.00    0.00       1.63    2.03   -0.28
#  34    1.38   -1.28    2.37    1.09   -0.12    0.00    0.00       3.44    2.14   -0.24
#  35    0.41   -0.06    0.00    2.83    0.79    0.00    0.00       3.97    4.48    1.25
#  36    1.74   -0.55    0.12    0.81   -0.12    0.00    0.00       1.99    1.52   -0.22
#  37    1.50   -0.43    0.15    0.55   -0.12    0.00    0.00       1.64    1.27   -0.28
#  38    0.60   -0.71    0.20    0.56   -0.16    0.00    0.00       0.48    0.98   -0.28
#  39   -0.41   -1.31    0.70    0.60   -0.19    0.00    0.00      -0.61    0.90   -0.28
#  40    0.77   -0.84    0.70    0.27   -0.15    0.00    0.00       0.76    0.49   -0.27
@<TRIPOS>MOLECULE
E45930165
   40    41     0     0     0
SMALL
USER_CHARGES


@<TRIPOS>ATOM
      1 C1         24.2241   20.8917   60.9434 C.3       1            -0.0470
      2 N1         23.8886   19.5196   61.3475 N.4       1            -0.3853
      3 H1         24.4005   18.8666   60.7734 H         1             0.4254
      4 C2         24.2551   19.3225   62.7556 C.3       1            -0.0230
      5 C3         24.0123   17.8609   63.1458 C.3       1             0.1053
      6 N2         22.6172   17.5190   62.8279 N.pl3     1            -0.6073
      7 C4         22.1157   17.8346   61.4814 C.3       1             0.0988
      8 C5         22.4476   19.2981   61.1719 C.3       1            -0.0218
      9 C6         21.8113   16.9254   63.7556 C.2       1             0.3800
     10 N3         20.5714   16.6288   63.4526 N.2       1            -0.4050
     11 N4         19.7732   16.1851   64.3636 N.2       1            -0.3052
     12 C7         18.7977   15.3628   64.0403 C.2       1             0.1915
     13 C8         18.8432   14.6343   62.7651 C.2       1             0.1036
     14 N5         19.4083   13.4689   62.7041 N.2       1            -0.2898
     15 O1         19.7736   12.7960   63.8952 O.3       1            -0.3926
     16 C9         17.6551   15.1722   64.9610 C.ar      1            -0.0557
     17 C10        16.3585   15.4715   64.5400 C.ar      1            -0.0930
     18 C11        15.2975   15.2915   65.4033 C.ar      1            -0.1199
     19 C12        15.5167   14.8154   66.6838 C.ar      1            -0.0989
     20 C13        16.7997   14.5172   67.1074 C.ar      1            -0.1247
     21 C14        17.8686   14.6868   66.2519 C.ar      1            -0.0769
     22 H2         23.6718   21.5982   61.5629 H         1             0.1221
     23 H3         25.2942   21.0563   61.0703 H         1             0.1260
     24 H4         23.9554   21.0382   59.8973 H         1             0.1258
     25 H5         25.3086   19.5656   62.8944 H         1             0.1452
     26 H6         23.6463   19.9725   63.3841 H         1             0.1344
     27 H7         24.6853   17.2147   62.5822 H         1             0.0963
     28 H8         24.1864   17.7331   64.2142 H         1             0.1290
     29 H9         22.5972   17.1856   60.7497 H         1             0.0891
     30 H10        21.0358   17.6894   61.4495 H         1             0.1354
     31 H11        21.8947   19.9489   61.8493 H         1             0.1325
     32 H12        22.1682   19.5232   60.1426 H         1             0.1421
     33 H13        22.1955   16.7002   64.7395 H         1             0.1399
     34 H14        18.4060   15.0695   61.8786 H         1             0.1901
     35 H15        20.1881   11.9346   63.7489 H         1             0.3896
     36 H16        16.1861   15.8435   63.5409 H         1             0.1281
     37 H17        14.2937   15.5231   65.0789 H         1             0.1309
     38 H18        14.6827   14.6762   67.3557 H         1             0.1279
     39 H19        16.9641   14.1462   68.1082 H         1             0.1278
     40 H20        18.8690   14.4487   66.5820 H         1             0.1294
@<TRIPOS>BOND
     1    1    2 1 
     2    1   22 1 
     3    1   23 1 
     4    1   24 1 
     5    2    3 1 
     6    2    8 1 
     7    2    4 1 
     8    4    5 1 
     9    4   25 1 
    10    4   26 1 
    11    5    6 1 
    12    5   27 1 
    13    5   28 1 
    14    6    7 1 
    15    6    9 1 
    16    7    8 1 
    17    7   29 1 
    18    7   30 1 
    19    8   31 1 
    20    8   32 1 
    21    9   10 2 
    22    9   33 1 
    23   10   11 1 
    24   11   12 2 
    25   12   13 1 
    26   12   16 1 
    27   13   14 2 
    28   13   34 1 
    29   14   15 1 
    30   15   35 1 
    31   16   21 ar
    32   16   17 ar
    33   17   18 ar
    34   17   36 1 
    35   18   19 ar
    36   18   37 1 
    37   19   20 ar
    38   19   38 1 
    39   20   21 ar
    40   20   39 1 
    41   21   40 1 
##########                 Name:            E16055584
##########          Protonation:                  100
##########               SMILES:   Cc1ccc2ncc(c(=O)n2c1)C(=O)Nc3ccc(cc3)F
##########            Long Name:   N-(4-fluorophenyl)-7-methyl-4-oxo-pyrido[1,2-a]pyrimidine-3-carboxamide
##########          FlexRecCode: 1
##########               Number:                  256
##########   Ligand Source File: /raidb/db2/rgc/leads-emolecules-300/leads-emolecules-2h-0000346.db2.gz
##########           GlobalRank: 854
##########                 Rank:                    1
##########               Setnum:                   12
##########             Matchnum:                 4673
##########                Cloud:                    1
##########        Electrostatic:           -14.863033
##########        Van der Waals:           -30.798157
##########  Ligand Polar Desolv:             5.923981
########## Ligand Apolar Desolv:            -3.500956
##########      Internal Energy:             0.000000
##########      Receptor Energy: 0.0
########## Receptor Desolvation:             0.000000
########## Receptor Hydrophobic:             0.000000
##########         Total Energy: -43.24
##########        Ligand Charge:             0.000000
##########            Arbitrary:    +999.9990
##########     heavy atom count:   22
##########           pose count:    1
##########        Ligand Energy:             0.000000
# num electro vdwattr vdwrepu polsolv apolsol rdesolv rhydroe totalscore fullpol fullapo
#   1    0.63   -1.05    0.42   -0.34   -0.06    0.00    0.00      -0.40   -1.12   -0.21
#   2    0.29   -1.55    0.34   -0.25   -0.15    0.00    0.00      -1.33   -0.64   -0.40
#   3   -0.05   -1.50    0.25    0.06   -0.34    0.00    0.00      -1.58    0.15   -0.82
#   4   -1.19   -1.70    0.34    0.09    0.55    0.00    0.00      -1.91    0.19    1.18
#   5    1.12   -2.16    0.65    0.10   -1.09    0.00    0.00      -1.37    0.19   -2.01
#   6    0.04   -3.01    1.74   -0.42   -0.24    0.00    0.00      -1.88   -0.81   -0.46
#   7    0.03   -2.00    0.60    0.10   -0.19    0.00    0.00      -1.46    0.22   -0.45
#   8   -2.35   -2.67    0.84    0.70    1.26    0.00    0.00      -2.23    1.11    2.00
#   9    1.17   -2.41    0.95   -0.67   -0.58    0.00    0.00      -1.54   -1.10   -0.94
#  10   -2.96   -1.72    0.29    1.36   -0.23    0.00    0.00      -3.27    2.41   -0.41
#  11    7.20   -1.92    0.33   -2.80   -0.38    0.00    0.00       2.43   -4.69   -0.64
#  12   -9.68   -2.28    0.67    3.48    0.20    0.00    0.00      -7.61    6.01    0.34
#  13   -5.87   -2.67    1.08    2.80    1.04    0.00    0.00      -3.62    4.41    1.63
#  14    1.57   -2.87    1.55   -0.48   -0.45    0.00    0.00      -0.68   -0.73   -0.68
#  15   -0.72   -3.02    0.88    0.52   -0.26    0.00    0.00      -2.60    0.81   -0.40
#  16   -1.27   -2.83    0.79    0.48   -0.31    0.00    0.00      -3.15    0.73   -0.47
#  17    0.88   -2.22    0.43   -0.16   -0.22    0.00    0.00      -1.29   -0.25   -0.34
#  18   -1.36   -1.70    0.83    0.57   -0.32    0.00    0.00      -1.98    0.86   -0.48
#  19   -1.46   -2.90    1.08    0.22   -0.29    0.00    0.00      -3.34    0.36   -0.47
#  20   -1.56   -3.04    1.64    0.24   -0.27    0.00    0.00      -3.00    0.40   -0.46
#  21    3.78   -1.89    0.60   -1.06   -0.30    0.00    0.00       1.13   -2.24   -0.63
#  22   -6.04   -2.62    1.62    1.39    0.16    0.00    0.00      -5.50    2.95    0.33
#  23   -0.60   -0.28    0.08    0.28   -0.05    0.00    0.00      -0.56    1.42   -0.27
#  24   -0.59   -0.99    2.37    0.24   -0.08    0.00    0.00       0.95    0.84   -0.28
#  25   -0.43   -0.13    0.01    0.10   -0.03    0.00    0.00      -0.49    0.85   -0.28
#  26   -0.37   -0.24    0.02    0.17   -0.07    0.00    0.00      -0.49    0.61   -0.25
#  27   -0.11   -1.10    1.27    0.88   -0.14    0.00    0.00       0.79    1.71   -0.28
#  28   -0.52   -0.31    0.05    0.96   -0.08    0.00    0.00       0.10    3.31   -0.28
#  29    0.27   -0.69    0.32   -0.33   -0.14    0.00    0.00      -0.58   -0.62   -0.26
#  30    1.49   -0.05    0.00   -1.27    0.19    0.00    0.00       0.36   -2.48    0.37
#  31    0.23   -0.75    0.19   -0.64   -0.13    0.00    0.00      -1.11   -1.06   -0.22
#  32    1.19   -1.23    2.75   -0.34   -0.17    0.00    0.00       2.21   -0.57   -0.28
#  33    0.74   -1.08    1.28    0.01   -0.15    0.00    0.00       0.79    0.01   -0.28
#  34    1.64   -0.65    0.19   -0.07   -0.15    0.00    0.00       0.96   -0.12   -0.28
@<TRIPOS>MOLECULE
E16055584
   34    36     0     0     0
SMALL
USER_CHARGES


@<TRIPOS>ATOM
      1 C1         25.2484   16.6299   62.8886 C.3       1            -0.1114
      2 C2         24.1585   15.6652   63.2794 C.2       1            -0.1220
      3 C3         22.8831   16.1002   63.4027 C.2       1             0.0938
      4 N1         21.8861   15.2432   63.7550 N.am      1            -0.4171
      5 C4         22.1555   13.9251   63.9904 C.2       1             0.4009
      6 C5         23.4730   13.4536   63.8672 C.2       1            -0.1332
      7 C6         24.4659   14.3182   63.5087 C.2       1            -0.0154
      8 N2         21.1870   13.0725   64.3360 N.2       1            -0.5422
      9 C7         19.9357   13.4620   64.4653 C.2       1             0.2732
     10 C8         19.5962   14.8028   64.2376 C.2       1            -0.3741
     11 C9         18.2087   15.2594   64.3761 C.2       1             0.5925
     12 O1         17.8034   16.1876   63.7012 O.2       1            -0.5301
     13 N3         17.3832   14.6511   65.2508 N.am      1            -0.6649
     14 C10        16.0597   15.0868   65.3829 C.ar      1             0.1427
     15 C11        15.4058   14.9646   66.6019 C.ar      1            -0.0958
     16 C12        14.0999   15.3953   66.7301 C.ar      1            -0.1318
     17 C13        13.4423   15.9480   65.6440 C.ar      1             0.0782
     18 F1         12.1646   16.3682   65.7714 F         1            -0.1405
     19 C14        14.0926   16.0711   64.4277 C.ar      1            -0.1318
     20 C15        15.4005   15.6472   64.2967 C.ar      1            -0.1188
     21 C16        20.6227   15.7065   63.8707 C.2       1             0.5307
     22 O2         20.3709   16.8806   63.6633 O.2       1            -0.5241
     23 H1         24.8223   17.6241   62.7538 H         1             0.0811
     24 H2         26.0040   16.6619   63.6736 H         1             0.0816
     25 H3         25.7071   16.3016   61.9559 H         1             0.0817
     26 H4         22.6538   17.1396   63.2198 H         1             0.1884
     27 H5         23.6978   12.4132   64.0507 H         1             0.1761
     28 H6         25.4821   13.9673   63.4068 H         1             0.1613
     29 H7         19.1731   12.7503   64.7457 H         1             0.1897
     30 H8         17.7063   13.9114   65.7887 H         1             0.4230
     31 H9         15.9181   14.5329   67.4490 H         1             0.1446
     32 H10        13.5910   15.3004   67.6780 H         1             0.1391
     33 H11        13.5779   16.5026   63.5819 H         1             0.1394
     34 H12        15.9087   15.7474   63.3491 H         1             0.1352
@<TRIPOS>BOND
     1    1    2 1 
     2    1   23 1 
     3    1   24 1 
     4    1   25 1 
     5    2    7 1 
     6    2    3 2 
     7    3    4 1 
     8    3   26 1 
     9    4   21 am
    10    4    5 1 
    11    5    6 1 
    12    5    8 2 
    13    6    7 2 
    14    6   27 1 
    15    7   28 1 
    16    8    9 1 
    17    9   10 2 
    18    9   29 1 
    19   10   11 1 
    20   10   21 1 
    21   11   12 2 
    22   11   13 am
    23   13   14 1 
    24   13   30 1 
    25   14   20 ar
    26   14   15 ar
    27   15   16 ar
    28   15   31 1 
    29   16   17 ar
    30   16   32 1 
    31   17   18 1 
    32   17   19 ar
    33   19   20 ar
    34   19   33 1 
    35   20   34 1 
    36   21   22 2 
##########                 Name:            E36680582
##########          Protonation:                   49
##########               SMILES:   COCC[NH+]1CCN(CC1)Cc2nc(no2)c3ccoc3
##########            Long Name:   3-furyl)-5-[[4-(2-methoxyethyl)piperazin-4-ium-1-yl]methyl]-1,2,4-oxadiazole
##########          FlexRecCode: 1
##########               Number:                  103
##########   Ligand Source File: /raidb/db2/rgc/leads-emolecules-300/leads-emolecules-2e-0000410.db2.gz
##########           GlobalRank: 869
##########                 Rank:                    1
##########               Setnum:                  148
##########             Matchnum:                  748
##########                Cloud:                    1
##########        Electrostatic:           -27.973454
##########        Van der Waals:           -22.810205
##########  Ligand Polar Desolv:             8.203793
########## Ligand Apolar Desolv:            -0.616942
##########      Internal Energy:             0.000000
##########      Receptor Energy: 0.0
########## Receptor Desolvation:             0.000000
########## Receptor Hydrophobic:             0.000000
##########         Total Energy: -43.2
##########        Ligand Charge:             1.000000
##########            Arbitrary:    +999.9990
##########     heavy atom count:   21
##########           pose count:    1
##########        Ligand Energy:             0.000000
# num electro vdwattr vdwrepu polsolv apolsol rdesolv rhydroe totalscore fullpol fullapo
#   1   -0.14   -0.98    0.25    0.17    0.01    0.00    0.00      -0.68    0.49    0.03
#   2    2.49   -1.97    0.78   -3.16    0.46    0.00    0.00      -1.39   -8.84    1.29
#   3   -0.34   -0.86    0.18    0.07   -0.04    0.00    0.00      -0.99    0.24   -0.12
#   4    0.15   -0.57    0.05    0.04   -0.09    0.00    0.00      -0.41    0.15   -0.32
#   5    7.99   -1.30    0.62   -3.50    0.14    0.00    0.00       3.94  -10.99    0.43
#   6  -13.61   -0.09    0.02    4.59    0.17    0.00    0.00      -8.92   14.45    0.52
#   7    0.04   -1.14    0.29    0.16   -0.16    0.00    0.00      -0.80    0.43   -0.42
#   8   -0.59   -0.97    0.13    0.21   -0.17    0.00    0.00      -1.40    0.48   -0.39
#   9    8.29   -1.13    0.13   -4.75    1.18    0.00    0.00       3.71  -12.95    3.21
#  10   -1.23   -0.62    0.03    1.03   -0.16    0.00    0.00      -0.96    2.75   -0.43
#  11   -0.92   -1.24    0.13    1.62   -0.26    0.00    0.00      -0.67    3.83   -0.61
#  12    0.26   -1.48    0.46   -2.16    1.28    0.00    0.00      -1.64   -5.33    3.15
#  13    1.60   -1.63    0.38    0.78   -1.01    0.00    0.00       0.12    1.73   -2.23
#  14   -3.69   -2.99    2.30   -0.66    0.62    0.00    0.00      -4.42   -1.40    1.31
#  15   -0.17   -2.22    1.34   -0.39   -0.07    0.00    0.00      -1.51   -0.85   -0.16
#  16   -0.76   -1.63    0.26   -0.77   -0.25    0.00    0.00      -3.16   -1.32   -0.43
#  17    0.17   -2.37    0.83    0.49   -0.17    0.00    0.00      -1.05    0.79   -0.27
#  18   -0.35   -2.93    0.77   -1.01    0.14    0.00    0.00      -3.37   -1.51    0.21
#  19   -0.02   -3.98    2.80   -0.08   -0.18    0.00    0.00      -1.47   -0.12   -0.28
#  20   -1.06   -2.22    0.70   -0.82   -0.30    0.00    0.00      -3.69   -1.37   -0.51
#  21   -0.33   -0.96    0.27    0.09   -0.12    0.00    0.00      -1.05    0.27   -0.37
#  22    0.09   -0.62    0.12    0.11   -0.11    0.00    0.00      -0.41    0.40   -0.41
#  23   -0.22   -0.67    0.91    0.20   -0.10    0.00    0.00       0.11    0.56   -0.28
#  24   -0.20   -0.20    0.02    0.25   -0.06    0.00    0.00      -0.19    1.11   -0.28
#  25   -0.40   -0.22    0.04    0.25   -0.06    0.00    0.00      -0.38    1.19   -0.28
#  26   -0.50   -0.14    0.01    0.34   -0.03    0.00    0.00      -0.33    2.45   -0.23
#  27   -2.19   -0.57    0.45    0.54   -0.08    0.00    0.00      -1.85    1.79   -0.28
#  28   -0.97   -0.10    0.00    0.49   -0.01    0.00    0.00      -0.59    5.12   -0.15
#  29   -1.20   -0.24    0.06    1.01   -0.05    0.00    0.00      -0.43    5.30   -0.28
#  30   -2.51   -0.50    0.37    1.65   -0.07    0.00    0.00      -1.06    6.23   -0.28
#  31   -4.10   -0.60    0.33    1.56   -0.11    0.00    0.00      -2.91    4.11   -0.28
#  32   -1.19   -0.25    0.02    1.09   -0.07    0.00    0.00      -0.41    3.31   -0.21
#  33   -3.89   -0.59    0.28    1.37   -0.12    0.00    0.00      -2.95    3.31   -0.28
#  34   -0.74   -0.17    0.01    0.48   -0.04    0.00    0.00      -0.46    3.16   -0.28
#  35   -1.22   -0.24    0.02    0.83   -0.07    0.00    0.00      -0.69    3.17   -0.28
#  36    0.27   -0.74    0.98    1.96   -0.14    0.00    0.00       2.33    3.93   -0.28
#  37   -0.80   -1.44    1.58    1.89   -0.17    0.00    0.00       1.06    3.07   -0.28
#  38    1.31   -0.39    0.07    0.27   -0.12    0.00    0.00       1.13    0.62   -0.28
#  39   -0.79   -0.17    0.01    0.57   -0.04    0.00    0.00      -0.42    2.88   -0.22
#  40   -3.41   -1.02    1.57    0.32   -0.08    0.00    0.00      -2.61    0.87   -0.22
#  41   -1.72   -0.16    0.03    0.49   -0.04    0.00    0.00      -1.40    3.60   -0.28
#  42   -1.35   -0.13    0.01    0.56   -0.03    0.00    0.00      -0.93    4.34   -0.23
@<TRIPOS>MOLECULE
E36680582
   42    44     0     0     0
SMALL
USER_CHARGES


@<TRIPOS>ATOM
      1 C1         25.7373   23.5110   57.9589 C.3       1             0.0300
      2 O1         24.4471   23.1106   58.4247 O.3       1            -0.4019
      3 C2         24.2592   23.2778   59.8313 C.3       1             0.0282
      4 C3         24.9133   22.1119   60.5754 C.3       1            -0.0134
      5 N1         24.2971   20.8495   60.1458 N.4       1            -0.3832
      6 H1         24.1333   20.8772   59.1505 H         1             0.4372
      7 C4         23.0195   20.6654   60.8468 C.3       1            -0.0018
      8 C5         22.3698   19.3578   60.3886 C.3       1             0.0274
      9 N2         23.2743   18.2378   60.6832 N.3       1            -0.5360
     10 C6         23.4628   18.0801   62.1315 C.3       1             0.1407
     11 C7         22.2827   17.3465   62.7148 C.2       1             0.2879
     12 N3         22.1807   16.0551   62.8501 N.2       1            -0.5340
     13 C8         20.9964   15.7422   63.4063 C.2       1             0.3333
     14 N4         20.3329   16.8506   63.6290 N.2       1            -0.3160
     15 O2         21.1646   17.9128   63.1866 O.3       1            -0.0877
     16 C9         20.5205   14.3719   63.7153 C.2       1            -0.1554
     17 C10        20.9782   13.2064   63.1876 C.2       1             0.0517
     18 O3         20.2857   12.1950   63.7285 O.3       1            -0.1687
     19 C11        19.3778   12.6541   64.6032 C.2       1            -0.0202
     20 C12        19.4622   13.9936   64.6590 C.2       1            -0.1835
     21 C13        24.5633   18.4191   60.0011 C.3       1             0.0185
     22 C14        25.1978   19.7331   60.4622 C.3       1            -0.0061
     23 H2         25.8001   23.3529   56.8822 H         1             0.0561
     24 H3         25.8922   24.5669   58.1807 H         1             0.0521
     25 H4         26.5039   22.9186   58.4584 H         1             0.1015
     26 H5         24.7164   24.2145   60.1503 H         1             0.0743
     27 H6         23.1927   23.2992   60.0555 H         1             0.0979
     28 H7         25.9799   22.0903   60.3512 H         1             0.1400
     29 H8         24.7700   22.2394   61.6483 H         1             0.1427
     30 H9         23.1972   20.6256   61.9215 H         1             0.1422
     31 H10        22.3564   21.5000   60.6187 H         1             0.1428
     32 H11        21.4280   19.2143   60.9183 H         1             0.0695
     33 H12        22.1815   19.4013   59.3159 H         1             0.1321
     34 H13        24.3734   17.5114   62.3197 H         1             0.1003
     35 H14        23.5456   19.0626   62.5962 H         1             0.1313
     36 H15        21.7666   13.1114   62.4557 H         1             0.2171
     37 H16        18.6931   12.0445   65.1743 H         1             0.2163
     38 H17        18.8698   14.6573   65.2713 H         1             0.1618
     39 H18        25.2255   17.5890   60.2475 H         1             0.0712
     40 H19        24.4036   18.4503   58.9234 H         1             0.1253
     41 H20        26.1486   19.8767   59.9492 H         1             0.1418
     42 H21        25.3672   19.6969   61.5384 H         1             0.1367
@<TRIPOS>BOND
     1    1    2 1 
     2    1   23 1 
     3    1   24 1 
     4    1   25 1 
     5    2    3 1 
     6    3    4 1 
     7    3   26 1 
     8    3   27 1 
     9    4    5 1 
    10    4   28 1 
    11    4   29 1 
    12    5    6 1 
    13    5   22 1 
    14    5    7 1 
    15    7    8 1 
    16    7   30 1 
    17    7   31 1 
    18    8    9 1 
    19    8   32 1 
    20    8   33 1 
    21    9   10 1 
    22    9   21 1 
    23   10   11 1 
    24   10   34 1 
    25   10   35 1 
    26   11   15 1 
    27   11   12 2 
    28   12   13 1 
    29   13   14 2 
    30   13   16 1 
    31   14   15 1 
    32   16   20 1 
    33   16   17 2 
    34   17   18 1 
    35   17   36 1 
    36   18   19 1 
    37   19   20 2 
    38   19   37 1 
    39   20   38 1 
    40   21   22 1 
    41   21   39 1 
    42   21   40 1 
    43   22   41 1 
    44   22   42 1 
##########                 Name:            E44854330
##########          Protonation:                  100
##########               SMILES:   COc1ccc(cc1/C=C/c2ccccc2)CC[NH3+]
##########            Long Name:   2-[4-methoxy-3-[(E)-styryl]phenyl]ethylammonium
##########          FlexRecCode: 1
##########               Number:                  303
##########   Ligand Source File: /raidb/db2/rgc/leads-emolecules-300/leads-emolecules-lt300-1a-0000009.db2.gz
##########           GlobalRank: 869
##########                 Rank:                    1
##########               Setnum:                  158
##########             Matchnum:                 4446
##########                Cloud:                    1
##########        Electrostatic:           -13.821170
##########        Van der Waals:           -29.239937
##########  Ligand Polar Desolv:             4.144022
########## Ligand Apolar Desolv:            -4.280091
##########      Internal Energy:             0.000000
##########      Receptor Energy: 0.0
########## Receptor Desolvation:             0.000000
########## Receptor Hydrophobic:             0.000000
##########         Total Energy: -43.2
##########        Ligand Charge:             1.000000
##########            Arbitrary:    +999.9990
##########     heavy atom count:   19
##########           pose count:    1
##########        Ligand Energy:             0.000000
# num electro vdwattr vdwrepu polsolv apolsol rdesolv rhydroe totalscore fullpol fullapo
#   1    0.08   -2.06    0.52    0.09    0.02    0.00    0.00      -1.36    0.14    0.03
#   2   -1.33   -1.90    0.44   -1.09    0.52    0.00    0.00      -3.36   -1.77    0.84
#   3    0.50   -1.77    0.39    0.16   -0.16    0.00    0.00      -0.88    0.30   -0.31
#   4   -0.05   -1.88    0.51   -1.29   -0.20    0.00    0.00      -2.90   -2.73   -0.42
#   5    0.15   -1.36    0.22   -0.47   -0.18    0.00    0.00      -1.64   -1.21   -0.45
#   6    0.50   -1.18    0.15   -0.79   -0.14    0.00    0.00      -1.47   -1.98   -0.36
#   7    0.83   -0.62    0.03   -1.14   -0.09    0.00    0.00      -0.99   -3.10   -0.25
#   8    0.08   -0.51    0.03    0.23   -0.14    0.00    0.00      -0.30    0.82   -0.48
#   9    7.52   -0.59    0.04   -6.19    0.22    0.00    0.00       1.00  -24.47    0.86
#  10   -4.11   -0.01    0.00    2.33    0.07    0.00    0.00      -1.71   19.34    0.60
#  11   -8.09   -0.02    0.00    3.38    0.10    0.00    0.00      -4.62   19.05    0.59
#  12   -3.88   -0.01    0.00    2.25    0.07    0.00    0.00      -1.56   19.05    0.59
#  13   -0.09   -1.51    0.29   -0.49   -0.18    0.00    0.00      -1.97   -1.13   -0.41
#  14   -0.39   -1.63    0.36   -0.65   -0.19    0.00    0.00      -2.50   -1.43   -0.41
#  15   -1.17   -1.75    0.30   -0.39   -0.22    0.00    0.00      -3.23   -0.75   -0.42
#  16   -1.14   -2.28    0.81   -0.60   -0.25    0.00    0.00      -3.45   -1.05   -0.43
#  17   -0.87   -2.11    0.35   -0.30   -0.26    0.00    0.00      -3.20   -0.48   -0.41
#  18   -1.87   -2.62    0.74   -0.36   -0.26    0.00    0.00      -4.38   -0.61   -0.44
#  19   -1.65   -2.86    1.02   -0.32   -0.28    0.00    0.00      -4.10   -0.54   -0.47
#  20   -1.29   -2.56    1.15   -0.46   -0.30    0.00    0.00      -3.46   -0.72   -0.47
#  21   -0.81   -3.07    0.92   -0.56   -0.30    0.00    0.00      -3.82   -0.87   -0.47
#  22   -0.76   -2.77    0.60   -0.58   -0.29    0.00    0.00      -3.80   -0.89   -0.45
#  23   -0.03   -1.14    0.98    0.46   -0.17    0.00    0.00       0.10    0.71   -0.26
#  24    0.19   -0.49    0.10    0.34   -0.15    0.00    0.00      -0.01    0.59   -0.26
#  25    0.64   -0.99    0.66    0.48   -0.17    0.00    0.00       0.62    0.80   -0.28
#  26   -0.09   -0.47    0.15    0.57   -0.09    0.00    0.00       0.07    1.40   -0.22
#  27   -0.47   -0.21    0.02    0.85   -0.06    0.00    0.00       0.12    3.92   -0.28
#  28   -1.19   -0.16    0.01    0.66   -0.05    0.00    0.00      -0.73    3.89   -0.28
#  29   -0.71   -0.28    0.03    1.12   -0.08    0.00    0.00       0.08    3.94   -0.28
#  30   -0.91   -0.15    0.01    0.52   -0.03    0.00    0.00      -0.56    4.34   -0.28
#  31   -1.36   -0.23    0.04    0.99   -0.06    0.00    0.00      -0.62    4.27   -0.28
#  32    0.23   -0.39    0.18    1.17   -0.07    0.00    0.00       1.12    3.73   -0.21
#  33    1.50   -0.40    0.08    0.01   -0.08    0.00    0.00       1.11    0.02   -0.19
#  34    1.11   -1.01    2.38    1.28   -0.10    0.00    0.00       3.67    2.77   -0.21
#  35    2.25   -0.60    0.18    0.17   -0.11    0.00    0.00       1.89    0.32   -0.21
#  36    1.05   -0.90    0.96    0.28   -0.15    0.00    0.00       1.23    0.50   -0.28
#  37    1.28   -0.38    0.07    0.36   -0.13    0.00    0.00       1.19    0.75   -0.28
#  38    0.21   -0.79    0.25    0.80   -0.17    0.00    0.00       0.30    1.33   -0.28
#  39    0.33   -0.69    0.15    1.34   -0.17    0.00    0.00       0.95    2.18   -0.28
@<TRIPOS>MOLECULE
E44854330
   39    40     0     0     0
SMALL
USER_CHARGES


@<TRIPOS>ATOM
      1 C1         20.6503   12.4184   63.4245 C.3       1             0.0224
      2 O1         21.1053   13.4156   64.3414 O.3       1            -0.3067
      3 C2         21.6904   14.5203   63.8107 C.ar      1             0.1571
      4 C3         23.0576   14.5450   63.5896 C.ar      1            -0.2041
      5 C4         23.6522   15.6695   63.0490 C.ar      1            -0.0669
      6 C5         22.8888   16.7783   62.7249 C.ar      1            -0.1479
      7 C6         23.5496   17.9980   62.1361 C.3       1            -0.0962
      8 C7         24.7793   17.5733   61.3309 C.3       1            -0.0084
      9 N1         25.4235   18.7622   60.7570 N.4       1            -0.6384
     10 H1         26.2345   18.4821   60.2261 H         1             0.4389
     11 H2         24.7723   19.2377   60.1505 H         1             0.4354
     12 H3         25.7061   19.3834   61.5002 H         1             0.4353
     13 C8         21.5266   16.7711   62.9384 C.ar      1            -0.0685
     14 C9         20.9125   15.6385   63.4789 C.ar      1            -0.0760
     15 C10        19.4570   15.6215   63.7045 C.2       1            -0.1065
     16 C11        18.9717   15.4449   64.9442 C.2       1            -0.0989
     17 C12        17.5154   15.4280   65.1699 C.ar      1            -0.0667
     18 C13        16.6523   15.9936   64.2276 C.ar      1            -0.1102
     19 C14        15.2906   15.9741   64.4458 C.ar      1            -0.1168
     20 C15        14.7785   15.3962   65.5941 C.ar      1            -0.1126
     21 C16        15.6272   14.8341   66.5317 C.ar      1            -0.1193
     22 C17        16.9907   14.8411   66.3245 C.ar      1            -0.1078
     23 H4         20.2044   11.5921   63.9781 H         1             0.0602
     24 H5         19.9060   12.8517   62.7563 H         1             0.0609
     25 H6         21.4935   12.0509   62.8396 H         1             0.1089
     26 H7         23.6599   13.6843   63.8403 H         1             0.1371
     27 H8         24.7186   15.6836   62.8785 H         1             0.1277
     28 H9         22.8461   18.5117   61.4809 H         1             0.0949
     29 H10        23.8550   18.6692   62.9389 H         1             0.0951
     30 H11        25.4828   17.0594   61.9862 H         1             0.1348
     31 H12        24.4741   16.9021   60.5282 H         1             0.1350
     32 H13        20.9347   17.6381   62.6847 H         1             0.1337
     33 H14        18.7801   15.7512   62.8730 H         1             0.1310
     34 H15        19.6487   15.3152   65.7757 H         1             0.1181
     35 H16        17.0504   16.4453   63.3312 H         1             0.1256
     36 H17        14.6223   16.4112   63.7188 H         1             0.1264
     37 H18        13.7114   15.3842   65.7595 H         1             0.1255
     38 H19        15.2204   14.3848   67.4256 H         1             0.1257
     39 H20        17.6516   14.3980   67.0548 H         1             0.1221
@<TRIPOS>BOND
     1    1    2 1 
     2    1   23 1 
     3    1   24 1 
     4    1   25 1 
     5    2    3 1 
     6    3   14 ar
     7    3    4 ar
     8    4    5 ar
     9    4   26 1 
    10    5    6 ar
    11    5   27 1 
    12    6    7 1 
    13    6   13 ar
    14    7    8 1 
    15    7   28 1 
    16    7   29 1 
    17    8    9 1 
    18    8   30 1 
    19    8   31 1 
    20    9   10 1 
    21    9   11 1 
    22    9   12 1 
    23   13   14 ar
    24   13   32 1 
    25   14   15 1 
    26   15   16 2 
    27   15   33 1 
    28   16   17 1 
    29   16   34 1 
    30   17   22 ar
    31   17   18 ar
    32   18   19 ar
    33   18   35 1 
    34   19   20 ar
    35   19   36 1 
    36   20   21 ar
    37   20   37 1 
    38   21   22 ar
    39   21   38 1 
    40   22   39 1 
##########                 Name:            E25615876
##########          Protonation:                   90
##########               SMILES:   C[NH+]1CC[C@@](CC1)(O)CNc2nccc(c2)C(F)(F)F
##########            Long Name:   -methyl-4-[[[4-(trifluoromethyl)-2-pyridyl]amino]methyl]piperidin-1-ium-4-ol
##########          FlexRecCode: 1
##########               Number:                  315
##########   Ligand Source File: /raidb/db2/rgc/leads-emolecules-300/leads-emolecules-3-aw-0000007.db2.gz
##########           GlobalRank: 901
##########                 Rank:                    1
##########               Setnum:                  113
##########             Matchnum:                 5806
##########                Cloud:                    1
##########        Electrostatic:           -33.748936
##########        Van der Waals:           -19.209375
##########  Ligand Polar Desolv:            11.471844
########## Ligand Apolar Desolv:            -1.638995
##########      Internal Energy:             0.000000
##########      Receptor Energy: 0.0
########## Receptor Desolvation:             0.000000
########## Receptor Hydrophobic:             0.000000
##########         Total Energy: -43.13
##########        Ligand Charge:             1.000000
##########            Arbitrary:    +999.9990
##########     heavy atom count:   20
##########           pose count:    1
##########        Ligand Energy:             0.000000
# num electro vdwattr vdwrepu polsolv apolsol rdesolv rhydroe totalscore fullpol fullapo
#   1    1.31   -1.00    0.33   -0.71   -0.15    0.00    0.00      -0.21   -2.14   -0.44
#   2   11.40   -2.66    2.79   -4.80    0.24    0.00    0.00       6.97  -11.32    0.56
#   3  -18.08   -0.17    0.05    7.86    0.27    0.00    0.00     -10.08   16.56    0.56
#   4    0.08   -1.37    0.43    0.21   -0.20    0.00    0.00      -0.84    0.45   -0.41
#   5    1.94   -1.03    0.16   -1.67   -0.09    0.00    0.00      -0.68   -3.70   -0.19
#   6   -1.14   -0.69    0.05    1.32   -0.02    0.00    0.00      -0.48    3.14   -0.05
#   7    4.41   -1.92    1.37   -5.23    0.67    0.00    0.00      -0.71  -11.99    1.53
#   8   -0.32   -0.90    0.09    0.63   -0.13    0.00    0.00      -0.64    1.47   -0.31
#   9   -2.48   -3.27    3.03   -5.33    0.74    0.00    0.00      -7.30  -11.18    1.56
#  10    3.36   -2.55    1.53    2.05   -0.98    0.00    0.00       3.41    4.35   -2.09
#  11   -0.78   -1.65    0.38   -0.97   -0.20    0.00    0.00      -3.21   -1.97   -0.41
#  12   -0.42   -1.70    0.27   -0.52   -0.23    0.00    0.00      -2.60   -0.88   -0.38
#  13   -1.23   -2.00    0.52   -1.00   -0.26    0.00    0.00      -3.96   -1.69   -0.44
#  14    2.10   -1.89    0.32    0.73   -0.56    0.00    0.00       0.69    1.26   -0.98
#  15   -9.19   -3.67    3.58   -2.56    1.06    0.00    0.00     -10.79   -4.94    2.04
#  16    1.85   -1.81    0.41    1.86   -0.04    0.00    0.00       2.27    2.91   -0.07
#  17   -0.34   -1.82    0.64   -0.50   -0.28    0.00    0.00      -2.30   -0.85   -0.48
#  18   -0.53   -2.84    1.56   -0.57   -0.30    0.00    0.00      -2.67   -0.84   -0.45
#  19   -0.46   -2.33    1.26   -0.75   -0.30    0.00    0.00      -2.59   -1.11   -0.45
#  20    2.33   -0.65    0.06   -1.57   -0.06    0.00    0.00       0.12   -4.75   -0.18
#  21    0.08   -1.81    1.12    0.16   -0.17    0.00    0.00      -0.63    0.39   -0.41
#  22   -1.93   -0.18    0.01    0.80   -0.05    0.00    0.00      -1.34    4.44   -0.28
#  23   -2.60   -0.36    0.28    0.88   -0.05    0.00    0.00      -1.86    4.58   -0.28
#  24   -2.65   -0.30    0.05    0.95   -0.04    0.00    0.00      -1.99    3.37   -0.15
#  25   -3.98   -0.72    0.57    2.19   -0.12    0.00    0.00      -2.05    5.30   -0.28
#  26   -3.33   -0.47    0.13    1.41   -0.11    0.00    0.00      -2.35    3.35   -0.26
#  27   -1.64   -0.44    0.18    1.22   -0.07    0.00    0.00      -0.74    3.95   -0.22
#  28   -1.40   -0.59    0.41    0.64   -0.10    0.00    0.00      -1.04    1.74   -0.28
#  29   -5.32   -0.04    0.00    3.39    0.46    0.00    0.00      -1.51    8.16    1.10
#  30   -0.18   -0.22    0.02    0.51   -0.07    0.00    0.00       0.06    2.07   -0.27
#  31   -0.39   -0.38    0.06    0.28   -0.10    0.00    0.00      -0.53    0.78   -0.27
#  32    1.33   -0.13    0.04    3.81    0.22    0.00    0.00       5.26    7.49    0.44
#  33    0.17   -0.28    0.05    0.63   -0.06    0.00    0.00       0.50    2.17   -0.21
#  34    0.82   -0.93    1.96    0.57   -0.12    0.00    0.00       2.29    1.22   -0.26
#  35    2.67   -0.35    0.04    1.01   -0.12    0.00    0.00       3.24    2.26   -0.28
#  36   -1.21   -0.13    0.00    0.39   -0.03    0.00    0.00      -0.97    3.40   -0.22
#  37   -1.10   -0.22    0.03    0.45   -0.05    0.00    0.00      -0.89    2.12   -0.23
#  38   -3.35   -0.82    0.70    1.80   -0.12    0.00    0.00      -1.78    3.79   -0.26
#  39   -3.57   -1.02    1.59    1.90   -0.10    0.00    0.00      -1.20    5.23   -0.28
@<TRIPOS>MOLECULE
E25615876
   39    40     0     0     0
SMALL
USER_CHARGES


@<TRIPOS>ATOM
      1 C1         24.0437   20.6650   60.2773 C.3       1            -0.0604
      2 N1         23.0763   19.8366   59.5454 N.4       1            -0.3814
      3 H1         22.9630   20.1999   58.6110 H         1             0.4314
      4 C2         21.7838   19.8667   60.2405 C.3       1            -0.0035
      5 C3         21.9652   19.3910   61.6836 C.3       1            -0.1338
      6 C4         22.5108   17.9601   61.6789 C.3       1             0.1189
      7 O1         21.5596   17.0881   61.0649 O.3       1            -0.5471
      8 C5         22.7678   17.5058   63.1171 C.3       1             0.0985
      9 N2         21.5138   17.5470   63.8735 N.pl3     1            -0.7291
     10 C6         20.6894   16.4286   63.9139 C.ar      1             0.4009
     11 C7         21.2141   15.1744   63.6182 C.ar      1            -0.1896
     12 C8         20.3826   14.0701   63.6622 C.ar      1            -0.0904
     13 C9         19.0491   14.2577   64.0019 C.ar      1            -0.1761
     14 C10        18.5957   15.5306   64.2834 C.ar      1             0.1613
     15 N3         19.4133   16.5656   64.2388 N.ar      1            -0.5179
     16 C11        20.9114   12.6943   63.3482 C.3       1             0.5090
     17 F1         22.2731   12.7777   63.0386 F         1            -0.1688
     18 F2         20.7358   11.8624   64.4591 F         1            -0.1677
     19 F3         20.2163   12.1658   62.2552 F         1            -0.1747
     20 C12        23.8215   17.9268   60.8876 C.3       1            -0.1797
     21 C13        23.5705   18.4562   59.4756 C.3       1            -0.0031
     22 H2         24.1669   20.2735   61.2870 H         1             0.1254
     23 H3         25.0032   20.6455   59.7604 H         1             0.1269
     24 H4         23.6789   21.6910   60.3275 H         1             0.1233
     25 H5         21.3953   20.8852   60.2402 H         1             0.1352
     26 H6         21.0806   19.2104   59.7279 H         1             0.1391
     27 H7         22.6681   20.0469   62.1973 H         1             0.1067
     28 H8         21.0041   19.4125   62.1974 H         1             0.1247
     29 H9         21.3508   17.3165   60.1487 H         1             0.3925
     30 H10        23.1560   16.4873   63.1124 H         1             0.0802
     31 H11        23.4955   18.1699   63.5834 H         1             0.0870
     32 H12        21.2589   18.3548   64.3462 H         1             0.4037
     33 H13        22.2564   15.0645   63.3573 H         1             0.1427
     34 H14        18.3735   13.4162   64.0450 H         1             0.1523
     35 H15        17.5594   15.6810   64.5477 H         1             0.1755
     36 H16        24.5629   18.5521   61.3848 H         1             0.1044
     37 H17        24.1874   16.9014   60.8324 H         1             0.1145
     38 H18        22.8292   17.8300   58.9792 H         1             0.1361
     39 H19        24.5021   18.4325   58.9101 H         1             0.1332
@<TRIPOS>BOND
     1    1    2 1 
     2    1   22 1 
     3    1   23 1 
     4    1   24 1 
     5    2    3 1 
     6    2   21 1 
     7    2    4 1 
     8    4    5 1 
     9    4   25 1 
    10    4   26 1 
    11    5    6 1 
    12    5   27 1 
    13    5   28 1 
    14    6    7 1 
    15    6    8 1 
    16    6   20 1 
    17    7   29 1 
    18    8    9 1 
    19    8   30 1 
    20    8   31 1 
    21    9   10 1 
    22    9   32 1 
    23   10   15 ar
    24   10   11 ar
    25   11   12 ar
    26   11   33 1 
    27   12   13 ar
    28   12   16 1 
    29   13   14 ar
    30   13   34 1 
    31   14   15 ar
    32   14   35 1 
    33   16   17 1 
    34   16   18 1 
    35   16   19 1 
    36   20   21 1 
    37   20   36 1 
    38   20   37 1 
    39   21   38 1 
    40   21   39 1 
##########                 Name:            E44358071
##########          Protonation:                   52
##########               SMILES:   c1ccc(cc1)C[NH+]2C[C@@H]3CN(C[C@H]3C2)Cc4cccnc4
##########            Long Name:   yl-5-(3-pyridylmethyl)-2,3,3a,4,6,6a-hexahydro-1H-pyrrolo[3,4-c]pyrrol-2-ium
##########          FlexRecCode: 1
##########               Number:                  286
##########   Ligand Source File: /raidb/db2/rgc/leads-emolecules-300/leads-emolecules-2f-0000390.db2.gz
##########           GlobalRank: 905
##########                 Rank:                    1
##########               Setnum:                   14
##########             Matchnum:                 2009
##########                Cloud:                    1
##########        Electrostatic:           -24.071215
##########        Van der Waals:           -25.175102
##########  Ligand Polar Desolv:             8.539515
########## Ligand Apolar Desolv:            -2.413174
##########      Internal Energy:             0.000000
##########      Receptor Energy: 0.0
########## Receptor Desolvation:             0.000000
########## Receptor Hydrophobic:             0.000000
##########         Total Energy: -43.12
##########        Ligand Charge:             1.000000
##########            Arbitrary:    +999.9990
##########     heavy atom count:   22
##########           pose count:    1
##########        Ligand Energy:             0.000000
# num electro vdwattr vdwrepu polsolv apolsol rdesolv rhydroe totalscore fullpol fullapo
#   1   -0.03   -1.07    0.19    0.65   -0.15    0.00    0.00      -0.41    1.54   -0.36
#   2    2.61   -1.23    0.34   -3.39    1.26    0.00    0.00      -0.42   -9.58    3.57
#   3   -0.44   -0.59    0.05    0.29   -0.13    0.00    0.00      -0.82    0.99   -0.46
#   4    1.79   -0.53    0.02   -1.17   -0.05    0.00    0.00       0.06   -3.84   -0.18
#   5   -0.33   -0.55    0.07    0.38   -0.13    0.00    0.00      -0.57    1.41   -0.48
#   6   10.17   -1.91    2.09   -4.13    0.16    0.00    0.00       6.38  -12.14    0.47
#   7  -18.36   -0.26    0.24    5.29    0.19    0.00    0.00     -12.91   15.59    0.56
#   8   -0.92   -0.94    0.20    0.67   -0.11    0.00    0.00      -1.11    2.07   -0.34
#   9    1.65   -1.08    0.25   -0.80   -0.10    0.00    0.00      -0.08   -2.84   -0.35
#  10    0.43   -0.52    0.02   -0.40   -0.09    0.00    0.00      -0.56   -2.02   -0.45
#  11    0.14   -0.59    0.03   -0.60   -0.11    0.00    0.00      -1.12   -2.64   -0.47
#  12    0.14   -1.26    0.34   -0.68   -0.15    0.00    0.00      -1.61   -2.15   -0.47
#  13    0.45   -1.78    0.83   -0.98   -0.17    0.00    0.00      -1.64   -2.63   -0.47
#  14    0.54   -1.92    0.85   -0.68   -0.14    0.00    0.00      -1.35   -1.97   -0.42
#  15   -0.49   -1.10    0.23    0.40   -0.15    0.00    0.00      -1.12    0.94   -0.36
#  16    2.20   -0.80    0.09   -1.21   -0.08    0.00    0.00       0.21   -3.14   -0.21
#  17   -0.48   -0.86    0.20    0.43   -0.19    0.00    0.00      -0.91    1.05   -0.47
#  18   -0.34   -1.68    0.40   -0.60   -0.17    0.00    0.00      -2.39   -1.27   -0.36
#  19   -0.32   -1.64    0.33   -0.37   -0.23    0.00    0.00      -2.23   -0.76   -0.46
#  20   -1.06   -1.68    0.24   -0.82   -0.28    0.00    0.00      -3.61   -1.40   -0.48
#  21    0.36   -2.26    0.40    0.12   -0.62    0.00    0.00      -2.00    0.19   -0.98
#  22   -1.98   -2.69    0.57   -1.83    1.29    0.00    0.00      -4.64   -2.91    2.05
#  23    0.19   -2.09    0.52    0.40   -0.46    0.00    0.00      -1.44    0.74   -0.85
#  24    0.00   -0.51    0.28    0.44   -0.09    0.00    0.00       0.12    1.34   -0.28
#  25    0.08   -0.43    0.10    0.46   -0.10    0.00    0.00       0.11    1.25   -0.28
#  26   -0.57   -0.38    0.21    0.22   -0.04    0.00    0.00      -0.57    1.01   -0.19
#  27   -0.64   -0.13    0.01    0.15   -0.04    0.00    0.00      -0.66    1.10   -0.28
#  28   -0.92   -0.21    0.02    0.68   -0.06    0.00    0.00      -0.50    3.13   -0.27
#  29   -1.29   -0.11    0.00    0.68   -0.03    0.00    0.00      -0.74    5.99   -0.26
#  30   -1.89   -0.18    0.03    0.78   -0.04    0.00    0.00      -1.31    4.94   -0.28
#  31   -3.38   -0.56    0.33    1.93   -0.09    0.00    0.00      -1.78    5.59   -0.27
#  32   -1.95   -0.28    0.09    1.29   -0.06    0.00    0.00      -0.91    6.13   -0.28
#  33   -0.42   -0.08    0.00    0.31   -0.02    0.00    0.00      -0.20    4.38   -0.28
#  34    0.07   -0.10    0.00    0.14   -0.03    0.00    0.00       0.09    1.41   -0.28
#  35   -0.05   -0.35    0.14    0.21   -0.07    0.00    0.00      -0.12    0.80   -0.28
#  36   -0.49   -0.46    0.23    0.54   -0.10    0.00    0.00      -0.28    1.58   -0.28
#  37   -0.86   -0.84    0.72    1.76   -0.10    0.00    0.00       0.69    4.61   -0.25
#  38   -2.79   -0.30    0.04    1.57   -0.07    0.00    0.00      -1.55    4.94   -0.23
#  39   -4.18   -0.68    0.52    1.82   -0.12    0.00    0.00      -2.63    4.39   -0.28
#  40   -2.20   -0.44    0.18    0.94   -0.10    0.00    0.00      -1.60    2.69   -0.28
#  41   -0.74   -0.52    0.54    0.41   -0.09    0.00    0.00      -0.41    1.22   -0.28
#  42   -0.36   -0.23    0.02    0.45   -0.07    0.00    0.00      -0.19    1.82   -0.27
#  43    1.43   -0.39    0.11    0.61   -0.10    0.00    0.00       1.66    1.77   -0.28
#  44    1.21   -0.37    0.08    0.53   -0.10    0.00    0.00       1.35    1.42   -0.28
#  45    0.08   -0.72    0.31    0.62   -0.17    0.00    0.00       0.12    1.03   -0.28
#  46   -0.13   -0.45    0.11    1.01   -0.10    0.00    0.00       0.45    2.42   -0.24
@<TRIPOS>MOLECULE
E44358071
   46    49     0     0     0
SMALL
USER_CHARGES


@<TRIPOS>ATOM
      1 C1         22.9837   16.1857   63.5563 C.3       1             0.0916
      2 N1         23.2874   16.5075   62.1555 N.3       1            -0.5113
      3 C2         24.6126   17.1954   62.0378 C.3       1             0.0602
      4 C3         24.2818   18.5668   61.5438 C.3       1            -0.1566
      5 C4         25.0842   19.4712   60.6651 C.3       1             0.0229
      6 N2         24.0635   20.2526   59.8966 N.4       1            -0.4009
      7 H1         24.2443   20.1716   58.9073 H         1             0.4278
      8 C5         24.1108   21.6647   60.2987 C.3       1             0.0492
      9 C6         25.2545   22.3492   59.5957 C.ar      1            -0.1621
     10 C7         26.5078   22.3753   60.1785 C.ar      1            -0.0940
     11 C8         27.5569   23.0033   59.5335 C.ar      1            -0.1130
     12 C9         27.3529   23.6047   58.3056 C.ar      1            -0.0838
     13 C10        26.0999   23.5777   57.7225 C.ar      1            -0.1136
     14 C11        25.0518   22.9461   58.3655 C.ar      1            -0.0949
     15 C12        22.7147   19.6764   60.2164 C.3       1             0.0205
     16 C13        23.0534   18.2513   60.5991 C.3       1            -0.1369
     17 C14        22.2476   17.4221   61.5761 C.3       1             0.0606
     18 C15        21.9394   15.1005   63.6075 C.ar      1            -0.1424
     19 C16        20.5911   15.4239   63.6293 C.ar      1            -0.0515
     20 C17        19.6658   14.3927   63.6765 C.ar      1            -0.1683
     21 C18        20.1148   13.0855   63.7000 C.ar      1             0.1057
     22 N3         21.4052   12.8151   63.6785 N.ar      1            -0.4829
     23 C19        22.3132   13.7703   63.6275 C.ar      1             0.1023
     24 H2         23.8900   15.8417   64.0547 H         1             0.0535
     25 H3         22.6075   17.0760   64.0603 H         1             0.0944
     26 H4         25.1008   17.2492   63.0109 H         1             0.0825
     27 H5         25.2482   16.6759   61.3209 H         1             0.0936
     28 H6         23.9092   19.1569   62.3812 H         1             0.0927
     29 H7         25.6998   20.1391   61.2677 H         1             0.1383
     30 H8         25.7067   18.8879   59.9864 H         1             0.1372
     31 H9         23.1739   22.1513   60.0274 H         1             0.1325
     32 H10        24.2555   21.7306   61.3770 H         1             0.1368
     33 H11        26.6672   21.9056   61.1377 H         1             0.1310
     34 H12        28.5359   23.0244   59.9891 H         1             0.1363
     35 H13        28.1724   24.0958   57.8021 H         1             0.1360
     36 H14        25.9404   24.0478   56.7634 H         1             0.1359
     37 H15        24.0737   22.9217   57.9081 H         1             0.1280
     38 H16        22.2564   20.2038   61.0529 H         1             0.1320
     39 H17        22.0662   19.6988   59.3406 H         1             0.1387
     40 H18        23.3518   17.6692   59.7273 H         1             0.1198
     41 H19        21.4763   16.8528   61.0572 H         1             0.1041
     42 H20        21.8105   18.0521   62.3507 H         1             0.0653
     43 H21        20.2695   16.4548   63.6104 H         1             0.1362
     44 H22        18.6077   14.6079   63.6950 H         1             0.1400
     45 H23        19.4005   12.2764   63.7368 H         1             0.1599
     46 H24        23.3611   13.5100   63.6058 H         1             0.1469
@<TRIPOS>BOND
     1    1    2 1 
     2    1   18 1 
     3    1   24 1 
     4    1   25 1 
     5    2   17 1 
     6    2    3 1 
     7    3    4 1 
     8    3   26 1 
     9    3   27 1 
    10    4   16 1 
    11    4    5 1 
    12    4   28 1 
    13    5    6 1 
    14    5   29 1 
    15    5   30 1 
    16    6    7 1 
    17    6    8 1 
    18    6   15 1 
    19    8    9 1 
    20    8   31 1 
    21    8   32 1 
    22    9   14 ar
    23    9   10 ar
    24   10   11 ar
    25   10   33 1 
    26   11   12 ar
    27   11   34 1 
    28   12   13 ar
    29   12   35 1 
    30   13   14 ar
    31   13   36 1 
    32   14   37 1 
    33   15   16 1 
    34   15   38 1 
    35   15   39 1 
    36   16   17 1 
    37   16   40 1 
    38   17   41 1 
    39   17   42 1 
    40   18   23 ar
    41   18   19 ar
    42   19   20 ar
    43   19   43 1 
    44   20   21 ar
    45   20   44 1 
    46   21   22 ar
    47   21   45 1 
    48   22   23 ar
    49   23   46 1 
##########                 Name:            E46187881
##########          Protonation:                   88
##########               SMILES:   c1cc(cnc1)N[C@@H]2C[C@@]3(CC[NH+](C3)Cc4ccco4)OC2
##########            Long Name:   5R,7R)-3-(2-furylmethyl)-N-(3-pyridyl)-9-oxa-3-azoniaspiro[4.4]nonan-7-amine
##########          FlexRecCode: 1
##########               Number:                  433
##########   Ligand Source File: /raidb/db2/rgc/leads-emolecules-300/leads-emolecules-3-cp-0000028.db2.gz
##########           GlobalRank: 933
##########                 Rank:                    1
##########               Setnum:                  127
##########             Matchnum:                 2613
##########                Cloud:                    1
##########        Electrostatic:           -19.588419
##########        Van der Waals:           -26.249002
##########  Ligand Polar Desolv:             4.743616
########## Ligand Apolar Desolv:            -1.934767
##########      Internal Energy:             0.000000
##########      Receptor Energy: 0.0
########## Receptor Desolvation:             0.000000
########## Receptor Hydrophobic:             0.000000
##########         Total Energy: -43.03
##########        Ligand Charge:             1.000000
##########            Arbitrary:    +999.9990
##########     heavy atom count:   22
##########           pose count:    1
##########        Ligand Energy:             0.000000
# num electro vdwattr vdwrepu polsolv apolsol rdesolv rhydroe totalscore fullpol fullapo
#   1   -0.98   -0.48    0.03    0.79   -0.09    0.00    0.00      -0.72    3.15   -0.36
#   2    7.18   -1.07    0.49   -3.22    0.13    0.00    0.00       3.52  -11.22    0.45
#   3  -10.36   -0.05    0.01    3.53    0.13    0.00    0.00      -6.74   15.54    0.56
#   4    0.19   -1.25    0.48    0.00   -0.15    0.00    0.00      -0.73   -0.01   -0.40
#   5    2.67   -0.87    0.10   -1.45   -0.10    0.00    0.00       0.36   -3.57   -0.25
#   6   -1.05   -0.55    0.02    0.72   -0.02    0.00    0.00      -0.88    2.09   -0.06
#   7    1.12   -0.63    0.07   -1.03   -0.08    0.00    0.00      -0.55   -3.22   -0.25
#   8   -0.35   -0.80    0.08    0.74   -0.13    0.00    0.00      -0.45    1.83   -0.31
#   9   -0.07   -1.50    0.32    0.29   -0.07    0.00    0.00      -1.03    0.65   -0.15
#  10    3.03   -1.32    0.15   -3.07    0.56    0.00    0.00      -0.65   -7.70    1.41
#  11   -0.13   -1.68    0.33   -5.07    0.65    0.00    0.00      -5.91  -11.67    1.49
#  12    0.32   -1.76    0.44    1.01   -0.36    0.00    0.00      -0.35    2.02   -0.72
#  13    0.07   -2.63    0.78   -0.10   -0.52    0.00    0.00      -2.40   -0.17   -0.91
#  14   -2.49   -4.07    1.97   -1.08    1.31    0.00    0.00      -4.36   -1.67    2.03
#  15    0.14   -2.86    0.67   -0.16   -0.64    0.00    0.00      -2.85   -0.24   -0.98
#  16   -0.60   -1.87    0.33   -0.59   -0.29    0.00    0.00      -3.01   -0.98   -0.48
#  17   -0.70   -1.61    0.37   -0.94   -0.25    0.00    0.00      -3.14   -1.73   -0.47
#  18    0.31   -0.47    0.03   -0.07   -0.12    0.00    0.00      -0.32   -0.28   -0.45
#  19    1.13   -0.96    0.13   -0.36   -0.08    0.00    0.00      -0.14   -1.28   -0.29
#  20    2.03   -1.74    0.68   -1.15   -0.15    0.00    0.00      -0.33   -3.59   -0.47
#  21    1.51   -2.11    1.29   -1.40   -0.18    0.00    0.00      -0.88   -4.08   -0.51
#  22   -0.08   -1.25    0.18   -0.24   -0.10    0.00    0.00      -1.48   -0.66   -0.27
#  23    0.89   -0.84    0.10   -1.03    0.07    0.00    0.00      -0.80   -3.44    0.25
#  24   -1.37   -0.22    0.03    0.97   -0.05    0.00    0.00      -0.64    5.25   -0.27
#  25   -0.77   -0.08    0.00    0.43   -0.02    0.00    0.00      -0.44    5.81   -0.28
#  26   -3.18   -0.34    0.09    1.10   -0.08    0.00    0.00      -2.41    3.50   -0.24
#  27   -4.75   -1.14    2.03    1.74   -0.11    0.00    0.00      -2.24    4.34   -0.28
#  28   -2.29   -0.23    0.01    0.56   -0.09    0.00    0.00      -2.04    1.81   -0.28
#  29   -2.59   -0.44    0.13    1.48   -0.10    0.00    0.00      -1.52    3.93   -0.27
#  30   -0.93   -0.35    0.17    0.61   -0.06    0.00    0.00      -0.57    2.45   -0.26
#  31   -0.60   -0.16    0.01    0.56   -0.03    0.00    0.00      -0.22    3.91   -0.24
#  32   -0.21   -0.24    0.04    0.24   -0.05    0.00    0.00      -0.22    0.98   -0.21
#  33    0.01   -0.83    0.74    0.33   -0.14    0.00    0.00       0.10    0.66   -0.28
#  34   -0.24   -0.97    0.78    0.85   -0.12    0.00    0.00       0.30    1.96   -0.28
#  35    0.19   -0.04    0.00    2.86    0.19    0.00    0.00       3.20    8.49    0.57
#  36   -0.08   -0.66    0.30    0.72   -0.10    0.00    0.00       0.19    1.53   -0.22
#  37   -0.28   -1.02    0.85    0.43   -0.18    0.00    0.00      -0.20    0.66   -0.28
#  38    0.97   -0.46    0.18    0.68   -0.12    0.00    0.00       1.24    1.57   -0.28
#  39    1.01   -0.29    0.04    0.81   -0.09    0.00    0.00       1.47    2.53   -0.28
#  40   -1.44   -0.11    0.00    0.79   -0.03    0.00    0.00      -0.79    7.06   -0.25
#  41   -1.08   -0.17    0.02    0.76   -0.04    0.00    0.00      -0.51    5.11   -0.26
#  42   -3.61   -0.50    0.27    1.12   -0.08    0.00    0.00      -2.80    3.80   -0.28
#  43   -1.24   -0.55    0.43    0.45   -0.07    0.00    0.00      -0.98    1.75   -0.28
#  44   -0.89   -0.26    0.03    1.13   -0.09    0.00    0.00      -0.08    3.69   -0.28
@<TRIPOS>MOLECULE
E46187881
   44    47     0     0     0
SMALL
USER_CHARGES


@<TRIPOS>ATOM
      1 C1         25.3543   21.4963   60.7862 C.3       1             0.0945
      2 N1         24.8468   20.2283   60.2450 N.4       1            -0.3890
      3 H1         25.2661   20.0481   59.3451 H         1             0.4288
      4 C2         23.3787   20.2956   60.1079 C.3       1            -0.0077
      5 C3         22.9304   18.8441   60.3603 C.3       1            -0.1347
      6 C4         23.8126   18.5209   61.5733 C.3       1             0.0895
      7 C5         23.9170   17.0049   61.7857 C.3       1            -0.1497
      8 C6         22.8353   16.8071   62.8691 C.3       1             0.1235
      9 C7         23.1230   18.0444   63.7378 C.3       1             0.0236
     10 O1         23.2924   19.0913   62.7727 O.3       1            -0.3442
     11 N2         23.0490   15.5664   63.6181 N.pl3     1            -0.7339
     12 C8         22.0657   14.5740   63.6210 C.ar      1             0.1512
     13 C9         22.4152   13.2356   63.7496 C.ar      1             0.0298
     14 N3         21.4903   12.2968   63.7527 N.ar      1            -0.4454
     15 C10        20.2085   12.5838   63.6353 C.ar      1             0.0513
     16 C11        19.7824   13.8921   63.5033 C.ar      1            -0.1205
     17 C12        20.7200   14.9122   63.5008 C.ar      1            -0.1448
     18 C13        25.1648   19.1264   61.1734 C.3       1            -0.0269
     19 C14        25.0090   22.6191   59.8423 C.2       1            -0.1124
     20 C15        23.8882   23.3619   59.8799 C.2       1            -0.1374
     21 C16        23.9776   24.2924   58.8193 C.2       1            -0.2194
     22 C17        25.1478   24.0627   58.1969 C.2       1             0.0156
     23 O2         25.7709   23.0518   58.8245 O.3       1            -0.1690
     24 H2         24.8980   21.6851   61.7579 H         1             0.1561
     25 H3         26.4368   21.4360   60.8986 H         1             0.1433
     26 H4         22.9530   20.9650   60.8554 H         1             0.1361
     27 H5         23.1006   20.6147   59.1035 H         1             0.1366
     28 H6         21.8714   18.7926   60.6131 H         1             0.1295
     29 H7         23.1674   18.2009   59.5129 H         1             0.1137
     30 H8         23.6684   16.4602   60.8750 H         1             0.1079
     31 H9         24.9031   16.7249   62.1561 H         1             0.0958
     32 H10        21.8330   16.8448   62.4424 H         1             0.1093
     33 H11        22.2792   18.2586   64.3938 H         1             0.1125
     34 H12        24.0353   17.9040   64.3174 H         1             0.0755
     35 H13        23.8733   15.4338   64.1119 H         1             0.4031
     36 H14        23.4554   12.9616   63.8477 H         1             0.1485
     37 H15        19.4814   11.7852   63.6419 H         1             0.1581
     38 H16        18.7304   14.1169   63.4074 H         1             0.1396
     39 H17        20.4151   15.9436   63.4036 H         1             0.1336
     40 H18        25.7807   18.3790   60.6735 H         1             0.1439
     41 H19        25.6799   19.5121   62.0530 H         1             0.1412
     42 H20        23.0756   23.2653   60.5847 H         1             0.1602
     43 H21        23.2464   25.0433   58.5585 H         1             0.1639
     44 H22        25.5241   24.6022   57.3405 H         1             0.2187
@<TRIPOS>BOND
     1    1    2 1 
     2    1   19 1 
     3    1   24 1 
     4    1   25 1 
     5    2    3 1 
     6    2   18 1 
     7    2    4 1 
     8    4    5 1 
     9    4   26 1 
    10    4   27 1 
    11    5    6 1 
    12    5   28 1 
    13    5   29 1 
    14    6   10 1 
    15    6    7 1 
    16    6   18 1 
    17    7    8 1 
    18    7   30 1 
    19    7   31 1 
    20    8    9 1 
    21    8   11 1 
    22    8   32 1 
    23    9   10 1 
    24    9   33 1 
    25    9   34 1 
    26   11   12 1 
    27   11   35 1 
    28   12   17 ar
    29   12   13 ar
    30   13   14 ar
    31   13   36 1 
    32   14   15 ar
    33   15   16 ar
    34   15   37 1 
    35   16   17 ar
    36   16   38 1 
    37   17   39 1 
    38   18   40 1 
    39   18   41 1 
    40   19   23 1 
    41   19   20 2 
    42   20   21 1 
    43   20   42 1 
    44   21   22 2 
    45   21   43 1 
    46   22   23 1 
    47   22   44 1 
##########                 Name:            E45648923
##########          Protonation:                   15
##########               SMILES:   c1cc([nH+]cc1N2CCN(CC2)c3c4cc[nH]c4ncn3)N
##########            Long Name:   5-[4-(7H-pyrrolo[2,3-d]pyrimidin-4-yl)piperazin-1-yl]pyridin-1-ium-2-amine
##########          FlexRecCode: 1
##########               Number:                  191
##########   Ligand Source File: /raidb/db2/rgc/leads-emolecules-300/leads-emolecules-2g-0000334.db2.gz
##########           GlobalRank: 947
##########                 Rank:                    1
##########               Setnum:                   14
##########             Matchnum:                 7079
##########                Cloud:                    1
##########        Electrostatic:           -22.428284
##########        Van der Waals:           -24.024622
##########  Ligand Polar Desolv:             6.207910
########## Ligand Apolar Desolv:            -2.766478
##########      Internal Energy:             0.000000
##########      Receptor Energy: 0.0
########## Receptor Desolvation:             0.000000
########## Receptor Hydrophobic:             0.000000
##########         Total Energy: -43.01
##########        Ligand Charge:             1.000000
##########            Arbitrary:    +999.9990
##########     heavy atom count:   22
##########           pose count:    1
##########        Ligand Energy:             0.000000
# num electro vdwattr vdwrepu polsolv apolsol rdesolv rhydroe totalscore fullpol fullapo
#   1    4.87   -0.77    0.04   -6.34    0.27    0.00    0.00      -1.93  -21.70    0.92
#   2   -4.82   -1.10    0.17    3.12   -0.62    0.00    0.00      -3.24   10.69   -2.11
#   3   10.32   -2.64    1.69   -4.26    0.34    0.00    0.00       5.45  -12.07    0.97
#   4  -12.05   -0.07    0.01    4.55    0.19    0.00    0.00      -7.37   13.85    0.58
#   5   -0.44   -2.70    1.56    0.56   -0.35    0.00    0.00      -1.37    1.44   -0.90
#   6   -3.84   -1.29    0.19    1.11   -0.25    0.00    0.00      -4.07    3.09   -0.70
#   7    0.60   -0.98    0.20   -0.32   -0.12    0.00    0.00      -0.63   -1.16   -0.44
#   8    1.67   -0.91    0.20   -0.93   -0.12    0.00    0.00      -0.09   -3.73   -0.46
#   9    9.53   -1.03    0.05   -4.73    0.68    0.00    0.00       4.51  -11.60    1.67
#  10   -0.82   -0.75    0.05    0.76   -0.19    0.00    0.00      -0.95    1.96   -0.49
#  11   -0.38   -1.44    0.44    0.81   -0.23    0.00    0.00      -0.80    1.76   -0.50
#  12   -0.07   -2.17    1.41   -3.26    0.73    0.00    0.00      -3.37   -7.21    1.61
#  13   -1.36   -1.31    0.54    0.93   -0.26    0.00    0.00      -1.46    1.82   -0.51
#  14   -1.73   -1.04    0.14    0.98   -0.23    0.00    0.00      -1.88    2.04   -0.48
#  15    3.73   -2.06    0.90    1.31   -0.77    0.00    0.00       3.11    2.86   -1.68
#  16   -0.77   -1.71    0.71   -0.62   -0.21    0.00    0.00      -2.61   -1.32   -0.44
#  17   -0.03   -1.78    0.93   -0.74   -0.23    0.00    0.00      -1.85   -1.66   -0.51
#  18    0.07   -2.17    0.60    0.37   -0.53    0.00    0.00      -1.66    0.69   -1.00
#  19   -2.14   -2.14    0.34   -2.39    0.73    0.00    0.00      -5.61   -3.89    1.18
#  20    1.57   -1.67    0.29    0.41   -1.38    0.00    0.00      -0.78    0.69   -2.33
#  21   -3.77   -2.01    0.51   -0.62    1.22    0.00    0.00      -4.67   -1.05    2.08
#  22    4.02   -2.12    0.47    0.50   -1.80    0.00    0.00       1.06    0.87   -3.16
#  23  -10.11   -3.57    5.22   -1.24    1.09    0.00    0.00      -8.61   -2.36    2.08
#  24   -1.52   -0.01    0.00    1.34    0.07    0.00    0.00      -0.12   11.71    0.59
#  25   -2.51   -0.01    0.00    1.90    0.09    0.00    0.00      -0.53   11.80    0.59
#  26   -6.00   -0.74    0.58    2.64   -0.08    0.00    0.00      -3.61    6.32   -0.20
#  27   -2.11   -0.12    0.01    0.47   -0.02    0.00    0.00      -1.77    4.14   -0.20
#  28   -1.20   -0.11    0.01    0.58   -0.03    0.00    0.00      -0.75    5.30   -0.28
#  29   -0.63   -0.16    0.01    0.06   -0.05    0.00    0.00      -0.78    0.34   -0.28
#  30   -0.73   -0.34    0.05    0.87   -0.06    0.00    0.00      -0.20    2.91   -0.19
#  31    0.11   -0.61    0.36    0.15   -0.12    0.00    0.00      -0.11    0.35   -0.27
#  32   -0.35   -0.81    0.42    0.69   -0.13    0.00    0.00      -0.18    1.46   -0.28
#  33   -0.75   -0.49    0.15    0.23   -0.12    0.00    0.00      -0.99    0.49   -0.27
#  34   -0.91   -0.60    0.66    0.64   -0.12    0.00    0.00      -0.32    1.56   -0.28
#  35   -2.36   -0.52    0.18    1.48   -0.08    0.00    0.00      -1.30    3.60   -0.20
#  36   -1.41   -0.50    0.26    0.17   -0.11    0.00    0.00      -1.58    0.45   -0.28
#  37   -0.35   -0.23    0.04    0.58   -0.07    0.00    0.00      -0.04    2.37   -0.28
#  38   -0.31   -0.58    0.25    1.62   -0.12    0.00    0.00       0.86    3.66   -0.28
#  39    1.90   -0.05    0.00    2.18    0.35    0.00    0.00       4.38    3.66    0.59
#  40    2.71   -0.46    0.10    0.65   -0.13    0.00    0.00       2.86    1.36   -0.28
@<TRIPOS>MOLECULE
E45648923
   40    43     0     0     0
SMALL
USER_CHARGES


@<TRIPOS>ATOM
      1 N1         25.3030   23.7485   59.4718 N.pl3     1            -0.8323
      2 C1         24.7138   22.5615   59.9012 C.ar      1             0.4055
      3 N2         23.4045   22.5112   60.0883 N.ar      1            -0.4588
      4 H1         22.8728   23.3056   59.9233 H         1             0.4425
      5 C2         22.8039   21.4083   60.4933 C.ar      1             0.0167
      6 C3         23.5317   20.2539   60.7396 C.ar      1             0.1874
      7 C4         24.9130   20.2688   60.5538 C.ar      1            -0.0375
      8 C5         25.5071   21.4411   60.1227 C.ar      1            -0.1401
      9 N3         22.8870   19.0877   61.1702 N.pl3     1            -0.5965
     10 C6         23.2315   18.4757   62.4611 C.3       1             0.0969
     11 C7         21.9515   18.3350   63.2941 C.3       1             0.1344
     12 N4         20.9178   17.7015   62.4634 N.pl3     1            -0.6557
     13 C8         20.5732   18.3135   61.1724 C.3       1             0.1350
     14 C9         21.8495   18.4573   60.3420 C.3       1             0.0962
     15 C10        20.2811   16.5496   62.8887 C.ar      1             0.4663
     16 C11        21.0096   15.3779   63.1455 C.ar      1            -0.2058
     17 C12        22.4199   14.9997   63.0786 C.2       1            -0.1734
     18 C13        22.4949   13.7123   63.4540 C.2       1             0.0654
     19 N5         21.2424   13.2424   63.7545 N.pl3     1            -0.5710
     20 C14        20.3157   14.2326   63.5767 C.ar      1             0.3222
     21 N6         18.9936   14.3067   63.7234 N.ar      1            -0.5279
     22 C15        18.3513   15.4263   63.4706 C.ar      1             0.3288
     23 N7         18.9640   16.5261   63.0700 N.ar      1            -0.5497
     24 H2         26.2612   23.7897   59.3271 H         1             0.4371
     25 H3         24.7544   24.5329   59.3137 H         1             0.4185
     26 H4         21.7332   21.4047   60.6351 H         1             0.1983
     27 H5         25.5050   19.3845   60.7383 H         1             0.1730
     28 H6         26.5744   21.4869   59.9641 H         1             0.1811
     29 H7         23.6693   17.4915   62.2942 H         1             0.0896
     30 H8         23.9434   19.1106   62.9886 H         1             0.0933
     31 H9         22.1499   17.7142   64.1678 H         1             0.0894
     32 H10        21.6119   19.3208   63.6121 H         1             0.0681
     33 H11        19.8614   17.6786   60.6449 H         1             0.0890
     34 H12        20.1356   19.2978   61.3394 H         1             0.0673
     35 H13        21.6486   19.0801   59.4703 H         1             0.0893
     36 H14        22.1864   17.4717   60.0206 H         1             0.0886
     37 H15        23.2432   15.6333   62.7836 H         1             0.1526
     38 H16        23.4051   13.1339   63.5103 H         1             0.1860
     39 H17        21.0428   12.3402   64.0493 H         1             0.4271
     40 H18        17.2794   15.4488   63.6002 H         1             0.2029
@<TRIPOS>BOND
     1    1    2 1 
     2    1   24 1 
     3    1   25 1 
     4    2    8 ar
     5    2    3 ar
     6    3    4 1 
     7    3    5 ar
     8    5    6 ar
     9    5   26 1 
    10    6    7 ar
    11    6    9 1 
    12    7    8 ar
    13    7   27 1 
    14    8   28 1 
    15    9   14 1 
    16    9   10 1 
    17   10   11 1 
    18   10   29 1 
    19   10   30 1 
    20   11   12 1 
    21   11   31 1 
    22   11   32 1 
    23   12   13 1 
    24   12   15 1 
    25   13   14 1 
    26   13   33 1 
    27   13   34 1 
    28   14   35 1 
    29   14   36 1 
    30   15   23 ar
    31   15   16 ar
    32   16   20 ar
    33   16   17 1 
    34   17   18 2 
    35   17   37 1 
    36   18   19 1 
    37   18   38 1 
    38   19   20 1 
    39   19   39 1 
    40   20   21 ar
    41   21   22 ar
    42   22   23 ar
    43   22   40 1 
##########                 Name:            E43087046
##########          Protonation:                  100
##########               SMILES:   CCCc1c(cncn1)C(=O)NC[C@]2(CC[NH2+]C2)O
##########            Long Name:   3S)-3-hydroxypyrrolidin-1-ium-3-yl]methyl]-4-propyl-pyrimidine-5-carboxamide
##########          FlexRecCode: 1
##########               Number:                   98
##########   Ligand Source File: /raidb/db2/rgc/leads-emolecules-300/leads-lt300-emolecules-1d-0000029.db2.gz
##########           GlobalRank: 947
##########                 Rank:                    1
##########               Setnum:                  297
##########             Matchnum:                 6514
##########                Cloud:                    1
##########        Electrostatic:           -34.359138
##########        Van der Waals:           -19.548676
##########  Ligand Polar Desolv:            11.554053
########## Ligand Apolar Desolv:            -0.651466
##########      Internal Energy:             0.000000
##########      Receptor Energy: 0.0
########## Receptor Desolvation:             0.000000
########## Receptor Hydrophobic:             0.000000
##########         Total Energy: -43.01
##########        Ligand Charge:             1.000000
##########            Arbitrary:    +999.9990
##########     heavy atom count:   19
##########           pose count:    1
##########        Ligand Energy:             0.000000
# num electro vdwattr vdwrepu polsolv apolsol rdesolv rhydroe totalscore fullpol fullapo
#   1   -2.44   -1.98    0.59   -0.46   -0.11    0.00    0.00      -4.39   -0.77   -0.19
#   2   -1.19   -1.76    0.84   -0.24   -0.14    0.00    0.00      -2.50   -0.41   -0.24
#   3   -1.05   -1.21    0.22   -0.18   -0.11    0.00    0.00      -2.33   -0.34   -0.20
#   4    1.46   -1.59    0.24    0.58   -0.39    0.00    0.00       0.29    0.99   -0.67
#   5   -0.87   -1.67    0.40   -1.27   -0.20    0.00    0.00      -3.60   -2.54   -0.41
#   6    0.28   -2.04    0.53    1.32   -0.49    0.00    0.00      -0.41    2.52   -0.94
#   7   -2.19   -3.38    1.20   -2.91    1.28    0.00    0.00      -6.00   -4.74    2.08
#   8    1.20   -3.26    0.95    1.22   -2.08    0.00    0.00      -1.96    1.86   -3.16
#   9   -2.02   -2.12    0.36   -1.55    1.23    0.00    0.00      -4.09   -2.50    1.99
#  10    1.25   -1.74    0.43    3.13   -0.29    0.00    0.00       2.78    7.12   -0.65
#  11   -2.92   -3.49    3.70   -2.39    0.14    0.00    0.00      -4.96   -4.97    0.29
#  12    2.11   -1.22    0.11   -5.22    0.86    0.00    0.00      -3.35  -13.10    2.16
#  13   -0.63   -0.92    0.10    0.72   -0.14    0.00    0.00      -0.87    1.84   -0.36
#  14   -1.31   -0.66    0.03    1.21   -0.02    0.00    0.00      -0.75    2.97   -0.06
#  15    5.87   -1.06    0.10   -6.37    0.78    0.00    0.00      -0.69  -13.79    1.69
#  16    3.05   -1.36    0.76   -2.10   -0.10    0.00    0.00       0.25   -5.41   -0.25
#  17    0.08   -1.15    0.30    0.23   -0.20    0.00    0.00      -0.75    0.62   -0.55
#  18   15.07   -2.79    4.02   -6.96    0.41    0.00    0.00       9.76  -17.08    1.01
#  19  -13.82   -0.05    0.00    7.67    0.25    0.00    0.00      -5.96   17.68    0.57
#  20  -18.94   -0.30    0.30    7.01    0.22    0.00    0.00     -11.72   18.26    0.57
#  21   -0.07   -0.76    0.09    0.21   -0.17    0.00    0.00      -0.70    0.61   -0.50
#  22    0.71   -0.58    0.17    0.13   -0.14    0.00    0.00       0.28    0.25   -0.28
#  23    1.43   -0.81    0.80    0.16   -0.15    0.00    0.00       1.44    0.31   -0.28
#  24    0.80   -0.89    0.47    0.22   -0.17    0.00    0.00       0.44    0.37   -0.28
#  25    0.58   -0.57    0.40    0.11   -0.09    0.00    0.00       0.43    0.29   -0.24
#  26    0.57   -1.18    1.90    0.02   -0.14    0.00    0.00       1.17    0.05   -0.28
#  27    1.10   -0.44    0.17    0.07   -0.12    0.00    0.00       0.78    0.17   -0.28
#  28    1.78   -0.55    0.26    0.25   -0.08    0.00    0.00       1.66    0.62   -0.21
#  29   -0.12   -0.36    0.07    1.89   -0.08    0.00    0.00       1.40    5.23   -0.23
#  30    0.20   -1.35    1.19    1.29   -0.18    0.00    0.00       1.15    1.97   -0.28
#  31   -1.49   -0.02    0.00    2.03    0.07    0.00    0.00       0.60    9.77    0.36
#  32   -0.37   -0.49    0.09    0.97   -0.12    0.00    0.00       0.07    2.26   -0.28
#  33   -0.73   -0.33    0.11    0.23   -0.07    0.00    0.00      -0.80    0.94   -0.28
#  34   -6.50   -0.02    0.00    3.49    0.37    0.00    0.00      -2.67    9.97    1.05
#  35   -2.57   -1.29    3.87    1.12   -0.11    0.00    0.00       1.02    2.93   -0.28
#  36   -1.39   -0.44    0.18    0.84   -0.07    0.00    0.00      -0.88    3.23   -0.28
#  37   -4.21   -0.73    0.61    1.61   -0.11    0.00    0.00      -2.83    4.24   -0.28
#  38   -2.67   -0.23    0.04    1.28   -0.06    0.00    0.00      -1.65    5.76   -0.28
#  39   -2.04   -0.14    0.01    0.83   -0.04    0.00    0.00      -1.38    5.89   -0.27
#  40   -2.34   -0.36    0.13    1.37   -0.09    0.00    0.00      -1.29    4.46   -0.28
@<TRIPOS>MOLECULE
E43087046
   40    41     0     0     0
SMALL
USER_CHARGES


@<TRIPOS>ATOM
      1 C1         16.6323   16.1293   63.6943 C.3       1            -0.1481
      2 C2         17.7074   15.0407   63.6958 C.3       1            -0.1037
      3 C3         19.0917   15.6909   63.6519 C.3       1            -0.0843
      4 C4         20.1507   14.6187   63.6534 C.ar      1             0.2490
      5 C5         21.5079   14.9597   63.6228 C.ar      1            -0.2605
      6 C6         22.4484   13.9236   63.6257 C.ar      1             0.1874
      7 N1         22.0218   12.6732   63.6568 N.ar      1            -0.5245
      8 C7         20.7330   12.3966   63.6850 C.ar      1             0.3340
      9 N2         19.8132   13.3418   63.6891 N.ar      1            -0.5165
     10 C8         21.9356   16.3744   63.5880 C.2       1             0.5787
     11 O1         21.2482   17.2302   64.1101 O.2       1            -0.5000
     12 N3         23.0876   16.7153   62.9773 N.am      1            -0.7348
     13 C9         23.5115   18.1173   62.9428 C.3       1             0.1008
     14 C10        22.9466   18.7901   61.6901 C.3       1             0.1050
     15 O2         21.5800   18.4243   61.4891 O.3       1            -0.5379
     16 C11        23.1006   20.3092   61.7694 C.3       1            -0.1771
     17 C12        23.3604   20.7512   60.3342 C.3       1            -0.0034
     18 N4         23.4148   19.5318   59.5109 N.4       1            -0.5113
     19 H1         22.5103   19.3419   59.1062 H         1             0.4381
     20 H2         24.1096   19.6294   58.7858 H         1             0.4347
     21 C13        23.7963   18.4483   60.4508 C.3       1             0.0042
     22 H3         15.6462   15.6658   63.7256 H         1             0.0566
     23 H4         16.7613   16.7684   64.5678 H         1             0.0573
     24 H5         16.7235   16.7286   62.7887 H         1             0.0578
     25 H6         17.6164   14.4412   64.6016 H         1             0.0650
     26 H7         17.5785   14.4014   62.8224 H         1             0.0598
     27 H8         19.1829   16.2904   62.7460 H         1             0.0872
     28 H9         19.2206   16.3303   64.5252 H         1             0.1095
     29 H10        23.5057   14.1423   63.6024 H         1             0.1646
     30 H11        20.4205   11.3630   63.7098 H         1             0.2086
     31 H12        23.6362   16.0324   62.5605 H         1             0.3960
     32 H13        23.1406   18.6309   63.8297 H         1             0.0927
     33 H14        24.6001   18.1673   62.9225 H         1             0.0957
     34 H15        21.1764   18.8253   60.7072 H         1             0.3976
     35 H16        22.1853   20.7646   62.1475 H         1             0.1221
     36 H17        23.9444   20.5728   62.4069 H         1             0.1144
     37 H18        22.5515   21.3963   59.9912 H         1             0.1393
     38 H19        24.3098   21.2833   60.2747 H         1             0.1420
     39 H20        24.8601   18.4920   60.6842 H         1             0.1522
     40 H21        23.5246   17.4717   60.0500 H         1             0.1517
@<TRIPOS>BOND
     1    1    2 1 
     2    1   22 1 
     3    1   23 1 
     4    1   24 1 
     5    2    3 1 
     6    2   25 1 
     7    2   26 1 
     8    3    4 1 
     9    3   27 1 
    10    3   28 1 
    11    4    9 ar
    12    4    5 ar
    13    5    6 ar
    14    5   10 1 
    15    6    7 ar
    16    6   29 1 
    17    7    8 ar
    18    8    9 ar
    19    8   30 1 
    20   10   11 2 
    21   10   12 am
    22   12   13 1 
    23   12   31 1 
    24   13   14 1 
    25   13   32 1 
    26   13   33 1 
    27   14   21 1 
    28   14   15 1 
    29   14   16 1 
    30   15   34 1 
    31   16   17 1 
    32   16   35 1 
    33   16   36 1 
    34   17   18 1 
    35   17   37 1 
    36   17   38 1 
    37   18   19 1 
    38   18   20 1 
    39   18   21 1 
    40   21   39 1 
    41   21   40 1 
##########                 Name:              E568280
##########          Protonation:                   14
##########               SMILES:   [H]/N=C(/Nc1ccc(cc1)Br)\NC(=[NH2+])N
##########            Long Name:   [amino-[[N-(4-bromophenyl)carbamimidoyl]amino]methylene]ammonium
##########          FlexRecCode: 1
##########               Number:                  780
##########   Ligand Source File: /raidb/db2/rgc/leads-emolecules-300/leads-emolecules-3-cw-0000005.db2.gz
##########           GlobalRank: 968
##########                 Rank:                    1
##########               Setnum:                   13
##########             Matchnum:                 2558
##########                Cloud:                    1
##########        Electrostatic:           -25.311886
##########        Van der Waals:           -21.209623
##########  Ligand Polar Desolv:             6.278364
########## Ligand Apolar Desolv:            -2.736866
##########      Internal Energy:             0.000000
##########      Receptor Energy: 0.0
########## Receptor Desolvation:             0.000000
########## Receptor Hydrophobic:             0.000000
##########         Total Energy: -42.98
##########        Ligand Charge:             1.000000
##########            Arbitrary:    +999.9990
##########     heavy atom count:   14
##########           pose count:    1
##########        Ligand Energy:             0.000000
# num electro vdwattr vdwrepu polsolv apolsol rdesolv rhydroe totalscore fullpol fullapo
#   1   20.54   -2.69    1.91   -9.09    0.27    0.00    0.00      10.93  -25.15    0.74
#   2  -16.49   -1.40    0.28    8.63   -1.81    0.00    0.00     -10.80   23.55   -4.95
#   3   17.42   -1.71    0.46   -9.48    0.36    0.00    0.00       7.05  -24.38    0.92
#   4  -13.87   -0.07    0.01    6.53    0.24    0.00    0.00      -7.16   15.98    0.59
#   5   -7.11   -0.02    0.00    3.57    0.14    0.00    0.00      -3.42   15.58    0.59
#   6   10.84   -2.00    1.00   -7.06    0.41    0.00    0.00       3.19  -18.57    1.09
#   7   -5.81   -1.74    0.31    5.75   -1.84    0.00    0.00      -3.33   14.17   -4.53
#   8    3.89   -4.21    2.04   -7.15    0.55    0.00    0.00      -4.89  -14.34    1.10
#   9    5.32   -0.99    0.05   -5.33    0.29    0.00    0.00      -0.65  -14.40    0.78
#  10   -0.54   -1.17    0.13    1.35   -0.27    0.00    0.00      -0.50    3.38   -0.67
#  11    0.25   -1.34    0.22   -0.57   -0.16    0.00    0.00      -1.59   -1.45   -0.40
#  12    0.00   -1.77    0.46   -0.47   -0.22    0.00    0.00      -1.99   -1.01   -0.46
#  13   -0.28   -1.73    0.53   -0.65   -0.16    0.00    0.00      -2.29   -1.21   -0.30
#  14   -0.12   -6.41    2.38   -0.44   -0.69    0.00    0.00      -5.28   -0.69   -1.09
#  15   -0.34   -1.63    0.41   -0.49   -0.21    0.00    0.00      -2.26   -1.07   -0.46
#  16   -0.13   -1.51    0.30   -0.86   -0.20    0.00    0.00      -2.41   -1.97   -0.46
#  17  -15.62   -0.17    0.08    6.16    0.23    0.00    0.00      -9.32   15.79    0.59
#  18   -9.04   -0.02    0.00    3.59    0.11    0.00    0.00      -5.36   12.74    0.40
#  19   -8.55   -0.09    0.02    4.31    0.18    0.00    0.00      -4.13   14.22    0.59
#  20   -2.62   -0.18    0.02    3.92    0.33    0.00    0.00       1.48    7.01    0.59
#  21   -3.87   -0.01    0.00    1.50    0.05    0.00    0.00      -2.33   12.07    0.40
#  22   -0.55   -0.21    0.02    0.48   -0.05    0.00    0.00      -0.31    2.22   -0.21
#  23   -0.17   -0.42    0.09    0.36   -0.11    0.00    0.00      -0.24    0.90   -0.28
#  24    1.42   -0.29    0.03    0.49   -0.09    0.00    0.00       1.55    1.44   -0.28
#  25    0.13   -0.41    0.23    1.21   -0.09    0.00    0.00       1.07    3.82   -0.28
@<TRIPOS>MOLECULE
E568280
   25    25     0     0     0
SMALL
USER_CHARGES


@<TRIPOS>ATOM
      1 N1         23.7067   21.2060   59.7087 N.pl3     1            -0.8047
      2 C1         23.4721   20.1601   60.4981 C.cat     1             0.7502
      3 N2         23.3820   18.9390   59.9760 N.pl3     1            -0.7687
      4 H1         23.4874   18.8112   59.0202 H         1             0.4472
      5 H2         23.2111   18.1770   60.5513 H         1             0.4456
      6 N3         23.3228   20.3411   61.8509 N.pl3     1            -0.6648
      7 C2         23.0793   19.2566   62.6698 C.2       1             0.5957
      8 N4         22.3865   19.4079   63.7619 N.2       1            -0.6870
      9 N5         23.5689   18.0157   62.3318 N.pl3     1            -0.6636
     10 C3         22.8794   16.8620   62.7206 C.ar      1             0.1536
     11 C4         23.5755   15.6862   62.9691 C.ar      1            -0.1031
     12 C5         22.8925   14.5490   63.3532 C.ar      1            -0.0689
     13 C6         21.5160   14.5802   63.4901 C.ar      1            -0.0960
     14 Br1        20.5843   13.0210   64.0161 Br        1            -0.0326
     15 C7         20.8200   15.7502   63.2430 C.ar      1            -0.0673
     16 C8         21.4984   16.8919   62.8642 C.ar      1            -0.1337
     17 H3         23.8102   21.0784   58.7526 H         1             0.4463
     18 H4         23.7705   22.0961   60.0888 H         1             0.4445
     19 H5         23.3883   21.2310   62.2313 H         1             0.4515
     20 H6         22.1037   20.2936   64.0381 H         1             0.3680
     21 H7         24.3919   17.9409   61.8240 H         1             0.4162
     22 H8         24.6499   15.6611   62.8618 H         1             0.1509
     23 H9         23.4332   13.6343   63.5466 H         1             0.1417
     24 H10        19.7456   15.7717   63.3506 H         1             0.1433
     25 H11        20.9551   17.8060   62.6755 H         1             0.1357
@<TRIPOS>BOND
     1    1    2 1 
     2    1   17 1 
     3    1   18 1 
     4    2    3 2 
     5    2    6 1 
     6    3    4 1 
     7    3    5 1 
     8    6    7 1 
     9    6   19 1 
    10    7    8 2 
    11    7    9 1 
    12    8   20 1 
    13    9   10 1 
    14    9   21 1 
    15   10   16 ar
    16   10   11 ar
    17   11   12 ar
    18   11   22 1 
    19   12   13 ar
    20   12   23 1 
    21   13   14 1 
    22   13   15 ar
    23   15   16 ar
    24   15   24 1 
    25   16   25 1 
##########                 Name:            E25854571
##########          Protonation:                   29
##########               SMILES:   [H]/N=C(/c1cccc(c1)[N+](=O)[O-])\NOC(=O)c2cccc(c2)C
##########            Long Name:   [(3-nitrobenzenecarboximidoyl)amino]
##########          FlexRecCode: 1
##########               Number:                  407
##########   Ligand Source File: /raidb/db2/rgc/leads-emolecules-300/leads-emolecules-lt300-2j-0000087.db2.gz
##########           GlobalRank: 1023
##########                 Rank:                    1
##########               Setnum:                   64
##########             Matchnum:                 5899
##########                Cloud:                    1
##########        Electrostatic:            -7.156086
##########        Van der Waals:           -34.942894
##########  Ligand Polar Desolv:             3.929226
########## Ligand Apolar Desolv:            -4.701692
##########      Internal Energy:             0.000000
##########      Receptor Energy: 0.0
########## Receptor Desolvation:             0.000000
########## Receptor Hydrophobic:             0.000000
##########         Total Energy: -42.87
##########        Ligand Charge:             0.000000
##########            Arbitrary:    +999.9990
##########     heavy atom count:   22
##########           pose count:    1
##########        Ligand Energy:             0.000000
# num electro vdwattr vdwrepu polsolv apolsol rdesolv rhydroe totalscore fullpol fullapo
#   1   -1.29   -1.75    0.57   -0.26   -0.12    0.00    0.00      -2.86   -0.42   -0.20
#   2   -1.21   -2.64    1.25   -0.11   -0.25    0.00    0.00      -2.96   -0.18   -0.40
#   3   -0.64   -2.87    0.83   -0.15   -0.29    0.00    0.00      -3.13   -0.24   -0.45
#   4   -0.45   -3.65    1.14   -0.25   -0.32    0.00    0.00      -3.52   -0.37   -0.47
#   5   -0.47   -2.78    0.56   -0.05   -0.29    0.00    0.00      -3.03   -0.08   -0.46
#   6   -1.55   -2.09    0.38    0.08   -0.26    0.00    0.00      -3.44    0.13   -0.41
#   7   -0.74   -2.56    0.79    0.01   -0.26    0.00    0.00      -2.76    0.02   -0.43
#   8    5.89   -1.82    0.29   -0.57   -0.09    0.00    0.00       3.71   -1.00   -0.16
#   9   -8.48   -2.26    1.15    0.93   -0.20    0.00    0.00      -8.85    1.77   -0.38
#  10   -0.76   -1.52    0.27    0.10   -0.33    0.00    0.00      -2.24    0.18   -0.57
#  11   -2.64   -1.61    0.29    0.05    0.35    0.00    0.00      -3.55    0.09    0.64
#  12    1.13   -2.00    0.49   -0.32   -1.18    0.00    0.00      -1.87   -0.60   -2.20
#  13   -3.27   -3.41    1.31    1.80    0.80    0.00    0.00      -2.77    2.93    1.31
#  14    0.03   -1.87    0.50   -0.02   -0.19    0.00    0.00      -1.55   -0.05   -0.41
#  15    0.11   -1.38    0.22   -0.05   -0.17    0.00    0.00      -1.27   -0.12   -0.44
#  16    0.55   -1.39    0.33   -0.19   -0.15    0.00    0.00      -0.86   -0.60   -0.47
#  17    0.13   -1.29    0.28   -0.03   -0.14    0.00    0.00      -1.05   -0.09   -0.45
#  18    0.14   -1.60    0.38    0.05   -0.27    0.00    0.00      -1.30    0.13   -0.70
#  19   -0.01   -2.55    1.19    0.01   -0.19    0.00    0.00      -1.55    0.02   -0.42
#  20   -0.05   -1.34    0.24   -0.07    0.15    0.00    0.00      -1.06   -0.21    0.43
#  21    0.20   -1.74    0.36    0.37   -0.25    0.00    0.00      -1.07    0.93   -0.63
#  22    0.07   -0.60    0.04    0.50   -0.16    0.00    0.00      -0.16    1.93   -0.63
#  23    0.78   -0.37    0.05    0.17   -0.14    0.00    0.00       0.49    0.34   -0.28
#  24    0.76   -0.97    0.99    0.26   -0.15    0.00    0.00       0.88    0.47   -0.28
#  25    0.77   -0.69    0.47    0.12   -0.14    0.00    0.00       0.53    0.24   -0.28
#  26    0.98   -0.57    0.12    0.54   -0.15    0.00    0.00       0.92    1.02   -0.28
#  27   -0.37   -1.16    0.59    0.63   -0.18    0.00    0.00      -0.50    0.95   -0.28
#  28    0.74   -0.78    0.44    0.18   -0.16    0.00    0.00       0.42    0.31   -0.27
#  29    2.00   -0.57    0.12   -0.05   -0.15    0.00    0.00       1.36   -0.09   -0.27
#  30    1.46   -0.02    0.00    0.26    0.11    0.00    0.00       1.80    0.90    0.37
#  31    1.65   -0.05    0.00   -0.69    0.31    0.00    0.00       1.22   -1.19    0.53
#  32   -0.25   -0.22    0.02    0.41   -0.05    0.00    0.00      -0.09    1.67   -0.22
#  33   -1.15   -0.24    0.06    0.46   -0.05    0.00    0.00      -0.92    2.60   -0.28
#  34   -0.57   -0.18    0.03    0.14   -0.04    0.00    0.00      -0.63    0.92   -0.27
#  35   -0.64   -0.83    0.70   -0.32   -0.11    0.00    0.00      -1.20   -0.71   -0.24
@<TRIPOS>MOLECULE
E25854571
   35    36     0     0     0
SMALL
USER_CHARGES


@<TRIPOS>ATOM
      1 C1         13.9314   15.9405   64.5460 C.3       1            -0.1179
      2 C2         15.2438   15.5314   65.1636 C.ar      1            -0.0938
      3 C3         15.2740   15.0343   66.4547 C.ar      1            -0.0767
      4 C4         16.4744   14.6562   67.0291 C.ar      1            -0.1242
      5 C5         17.6504   14.7728   66.3170 C.ar      1            -0.0691
      6 C6         17.6271   15.2733   65.0143 C.ar      1            -0.1264
      7 C7         16.4114   15.6480   64.4386 C.ar      1            -0.0496
      8 C8         18.8828   15.4016   64.2459 C.2       1             0.4994
      9 O1         18.9959   16.2744   63.4077 O.2       1            -0.4909
     10 O2         19.8994   14.5535   64.4739 O.3       1            -0.1112
     11 N1         21.0394   14.7910   63.6681 N.pl3     1            -0.6101
     12 C9         22.1497   13.9964   63.7997 C.2       1             0.4663
     13 N2         22.0210   12.7511   64.1663 N.2       1            -0.7176
     14 C10        23.4949   14.5523   63.5251 C.ar      1            -0.0450
     15 C11        23.6362   15.8848   63.1385 C.ar      1            -0.0507
     16 C12        24.8918   16.3970   62.8842 C.ar      1            -0.1125
     17 C13        26.0095   15.5913   63.0115 C.ar      1            -0.0360
     18 C14        25.8756   14.2690   63.3946 C.ar      1            -0.0509
     19 C15        24.6254   13.7471   63.6578 C.ar      1             0.0018
     20 N3         27.0762   13.4136   63.5281 N.pl3     1             0.0315
     21 O3         26.9607   12.2576   63.8629 O.2       1            -0.1522
     22 O4         28.1724   13.8709   63.3023 O.3       1            -0.1465
     23 H1         13.1264   15.7783   65.2627 H         1             0.0765
     24 H2         13.9702   16.9958   64.2759 H         1             0.0729
     25 H3         13.7483   15.3433   63.6527 H         1             0.0715
     26 H4         14.3564   14.9416   67.0167 H         1             0.1345
     27 H5         16.4910   14.2690   68.0371 H         1             0.1374
     28 H6         18.5869   14.4778   66.7669 H         1             0.1371
     29 H7         16.3859   16.0318   63.4295 H         1             0.1405
     30 H8         21.0350   15.5157   63.0234 H         1             0.4218
     31 H9         21.1401   12.3871   64.3460 H         1             0.3532
     32 H10        22.7646   16.5144   63.0381 H         1             0.1439
     33 H11        25.0027   17.4287   62.5847 H         1             0.1580
     34 H12        26.9903   15.9964   62.8106 H         1             0.1610
     35 H13        24.5225   12.7157   63.9610 H         1             0.1741
@<TRIPOS>BOND
     1    1    2 1 
     2    1   23 1 
     3    1   24 1 
     4    1   25 1 
     5    2    7 ar
     6    2    3 ar
     7    3    4 ar
     8    3   26 1 
     9    4    5 ar
    10    4   27 1 
    11    5    6 ar
    12    5   28 1 
    13    6    7 ar
    14    6    8 1 
    15    7   29 1 
    16    8    9 2 
    17    8   10 1 
    18   10   11 1 
    19   11   12 1 
    20   11   30 1 
    21   12   13 2 
    22   12   14 1 
    23   13   31 1 
    24   14   19 ar
    25   14   15 ar
    26   15   16 ar
    27   15   32 1 
    28   16   17 ar
    29   16   33 1 
    30   17   18 ar
    31   17   34 1 
    32   18   19 ar
    33   18   20 1 
    34   19   35 1 
    35   20   21 2 
    36   20   22 1 
##########                 Name:            E48294895
##########          Protonation:                   99
##########               SMILES:   c1ccc(cc1)C[NH+]2CC[C@@H](C2)COC(=O)c3cccnc3
##########            Long Name:   [(3S)-1-benzylpyrrolidin-1-ium-3-yl]methyl
##########          FlexRecCode: 1
##########               Number:                  103
##########   Ligand Source File: /raidb/db2/rgc/leads-emolecules-300/leads-emolecules-2h-0000144.db2.gz
##########           GlobalRank: 1032
##########                 Rank:                    1
##########               Setnum:                   58
##########             Matchnum:                 4696
##########                Cloud:                    1
##########        Electrostatic:           -19.412947
##########        Van der Waals:           -26.688663
##########  Ligand Polar Desolv:             6.962445
########## Ligand Apolar Desolv:            -3.715305
##########      Internal Energy:             0.000000
##########      Receptor Energy: 0.0
########## Receptor Desolvation:             0.000000
########## Receptor Hydrophobic:             0.000000
##########         Total Energy: -42.85
##########        Ligand Charge:             1.000000
##########            Arbitrary:    +999.9990
##########     heavy atom count:   22
##########           pose count:    1
##########        Ligand Energy:             0.000000
# num electro vdwattr vdwrepu polsolv apolsol rdesolv rhydroe totalscore fullpol fullapo
#   1   -0.80   -3.34    2.46   -1.75   -0.18    0.00    0.00      -3.61   -3.81   -0.39
#   2    0.39   -1.65    0.33    2.25   -0.07    0.00    0.00       1.25    5.25   -0.17
#   3    1.12   -0.97    0.10   -2.00    0.12    0.00    0.00      -1.64   -4.86    0.28
#   4   -0.53   -0.76    0.05    0.31   -0.04    0.00    0.00      -0.97    0.78   -0.10
#   5    1.53   -0.60    0.03   -0.92   -0.08    0.00    0.00      -0.03   -2.44   -0.20
#   6    2.87   -0.94    0.11   -1.69   -0.12    0.00    0.00       0.23   -3.75   -0.27
#   7    0.25   -1.55    0.65    0.03   -0.16    0.00    0.00      -0.78    0.08   -0.39
#   8    6.70   -1.14    0.32   -3.90    0.15    0.00    0.00       2.13  -11.73    0.45
#   9   -7.31   -0.06    0.01    4.28    0.16    0.00    0.00      -2.93   15.41    0.56
#  10   -0.53   -0.58    0.06    0.54   -0.09    0.00    0.00      -0.61    1.95   -0.32
#  11    1.52   -1.36    0.47   -0.84   -0.10    0.00    0.00      -0.30   -2.79   -0.34
#  12    1.42   -1.76    0.72   -0.63   -0.13    0.00    0.00      -0.38   -1.94   -0.41
#  13    1.29   -1.36    0.23   -0.97   -0.18    0.00    0.00      -0.99   -2.59   -0.47
#  14    0.28   -1.47    0.20   -0.93   -0.21    0.00    0.00      -2.12   -2.12   -0.47
#  15   -0.28   -2.29    1.05   -0.97   -0.18    0.00    0.00      -2.66   -2.60   -0.47
#  16   -0.19   -2.22    1.50   -0.64   -0.14    0.00    0.00      -1.70   -1.99   -0.45
#  17    0.10   -0.54    0.04    0.15   -0.14    0.00    0.00      -0.40    0.50   -0.47
#  18   -0.54   -1.69    0.41   -0.91   -0.20    0.00    0.00      -2.93   -1.86   -0.41
#  19   -0.04   -1.58    0.26   -0.18   -0.25    0.00    0.00      -1.79   -0.33   -0.45
#  20   -0.84   -1.97    0.37   -1.02   -0.29    0.00    0.00      -3.76   -1.67   -0.48
#  21    0.42   -2.95    0.72    0.62   -0.64    0.00    0.00      -1.83    0.95   -0.98
#  22   -2.44   -3.50    1.30   -2.51    1.29    0.00    0.00      -5.86   -3.97    2.04
#  23    0.27   -2.19    0.57    0.82   -0.51    0.00    0.00      -1.04    1.52   -0.94
#  24   -0.58   -0.35    0.04    0.56   -0.10    0.00    0.00      -0.43    1.51   -0.27
#  25   -0.54   -0.30    0.05    0.39   -0.08    0.00    0.00      -0.48    1.41   -0.28
#  26   -1.78   -0.22    0.03    0.81   -0.07    0.00    0.00      -1.22    3.44   -0.28
#  27   -3.02   -0.40    0.08    0.81   -0.11    0.00    0.00      -2.64    2.09   -0.28
#  28   -1.68   -0.31    0.04    0.64   -0.09    0.00    0.00      -1.38    2.03   -0.27
#  29   -4.46   -1.06    1.83    1.86   -0.08    0.00    0.00      -1.91    4.82   -0.21
#  30   -4.38   -0.91    1.19    1.63   -0.11    0.00    0.00      -2.58    4.01   -0.28
#  31   -0.77   -0.10    0.00    0.64   -0.03    0.00    0.00      -0.26    6.18   -0.28
#  32   -1.78   -0.22    0.05    1.11   -0.05    0.00    0.00      -0.89    5.74   -0.27
#  33   -2.49   -0.85    1.12    1.39   -0.07    0.00    0.00      -0.91    4.54   -0.24
#  34   -1.63   -0.29    0.05    0.38   -0.07    0.00    0.00      -1.56    1.50   -0.28
#  35   -0.08   -0.31    0.03    0.30   -0.11    0.00    0.00      -0.17    0.76   -0.28
#  36    0.40   -0.56    0.37    0.47   -0.10    0.00    0.00       0.58    1.37   -0.28
#  37    0.33   -0.44    0.18    1.16   -0.07    0.00    0.00       1.16    4.37   -0.28
#  38   -1.23   -0.16    0.01    0.76   -0.04    0.00    0.00      -0.65    5.13   -0.27
#  39   -2.40   -0.21    0.05    0.98   -0.04    0.00    0.00      -1.62    6.28   -0.26
#  40    1.59   -0.30    0.04    0.42   -0.09    0.00    0.00       1.66    1.26   -0.27
#  41    0.90   -0.63    0.60    0.97   -0.13    0.00    0.00       1.72    2.16   -0.28
#  42   -0.32   -1.16    1.19    1.39   -0.18    0.00    0.00       0.92    2.12   -0.28
#  43   -0.17   -0.43    0.10    1.14   -0.11    0.00    0.00       0.54    2.83   -0.27
@<TRIPOS>MOLECULE
E48294895
   43    45     0     0     0
SMALL
USER_CHARGES


@<TRIPOS>ATOM
      1 O1         23.2888   16.4489   64.4808 O.2       1            -0.4926
      2 C1         22.5119   16.1720   63.5890 C.2       1             0.5232
      3 O2         22.3438   17.0190   62.5551 O.3       1            -0.3458
      4 C2         23.1113   18.2243   62.5724 C.3       1             0.0719
      5 C3         23.3986   18.6668   61.1362 C.3       1            -0.1059
      6 C4         22.2328   19.4859   60.5869 C.3       1            -0.1379
      7 C5         22.8658   20.8141   60.1836 C.3       1            -0.0093
      8 N1         23.9538   20.9618   61.1659 N.4       1            -0.3879
      9 H1         23.5860   21.1408   62.0883 H         1             0.4274
     10 C6         24.8896   22.0187   60.7597 C.3       1             0.0466
     11 C7         24.3143   23.3643   61.1192 C.ar      1            -0.1633
     12 C8         23.5144   24.0380   60.2150 C.ar      1            -0.0946
     13 C9         22.9867   25.2723   60.5448 C.ar      1            -0.1137
     14 C10        23.2584   25.8330   61.7788 C.ar      1            -0.0836
     15 C11        24.0576   25.1591   62.6832 C.ar      1            -0.1134
     16 C12        24.5819   23.9227   62.3552 C.ar      1            -0.0941
     17 C13        24.5949   19.6288   61.1001 C.3       1            -0.0070
     18 C14        21.7562   14.9036   63.6351 C.ar      1            -0.1904
     19 C15        20.3556   14.9091   63.6508 C.ar      1            -0.0074
     20 C16        19.6957   13.6939   63.6937 C.ar      1            -0.1785
     21 C17        20.4329   12.5234   63.7194 C.ar      1             0.1425
     22 N2         21.7519   12.5485   63.7040 N.ar      1            -0.4897
     23 C18        22.4256   13.6790   63.6577 C.ar      1             0.1613
     24 H2         22.5512   19.0045   63.0877 H         1             0.0809
     25 H3         24.0525   18.0483   63.0936 H         1             0.0844
     26 H4         23.5871   17.8004   60.5024 H         1             0.1223
     27 H5         21.7944   18.9924   59.7195 H         1             0.1237
     28 H6         21.4777   19.6407   61.3576 H         1             0.1004
     29 H7         23.2627   20.7629   59.1697 H         1             0.1333
     30 H8         22.1480   21.6294   60.2741 H         1             0.1355
     31 H9         25.8400   21.8804   61.2753 H         1             0.1367
     32 H10        25.0499   21.9680   59.6828 H         1             0.1361
     33 H11        23.3021   23.6000   59.2509 H         1             0.1296
     34 H12        22.3624   25.7989   59.8382 H         1             0.1361
     35 H13        22.8468   26.7977   62.0361 H         1             0.1360
     36 H14        24.2702   25.5972   63.6473 H         1             0.1361
     37 H15        25.2031   23.3944   63.0633 H         1             0.1309
     38 H16        25.2433   19.4700   61.9618 H         1             0.1364
     39 H17        25.1531   19.5150   60.1708 H         1             0.1409
     40 H18        19.8051   15.8380   63.6304 H         1             0.1516
     41 H19        18.6164   13.6594   63.7073 H         1             0.1524
     42 H20        19.9202   11.5735   63.7529 H         1             0.1700
     43 H21        23.5053   13.6587   63.6414 H         1             0.1688
@<TRIPOS>BOND
     1    1    2 2 
     2    2    3 1 
     3    2   18 1 
     4    3    4 1 
     5    4    5 1 
     6    4   24 1 
     7    4   25 1 
     8    5   17 1 
     9    5    6 1 
    10    5   26 1 
    11    6    7 1 
    12    6   27 1 
    13    6   28 1 
    14    7    8 1 
    15    7   29 1 
    16    7   30 1 
    17    8    9 1 
    18    8   10 1 
    19    8   17 1 
    20   10   11 1 
    21   10   31 1 
    22   10   32 1 
    23   11   16 ar
    24   11   12 ar
    25   12   13 ar
    26   12   33 1 
    27   13   14 ar
    28   13   34 1 
    29   14   15 ar
    30   14   35 1 
    31   15   16 ar
    32   15   36 1 
    33   16   37 1 
    34   17   38 1 
    35   17   39 1 
    36   18   23 ar
    37   18   19 ar
    38   19   20 ar
    39   19   40 1 
    40   20   21 ar
    41   20   41 1 
    42   21   22 ar
    43   21   42 1 
    44   22   23 ar
    45   23   43 1 
##########                 Name:            E18816506
##########          Protonation:                   16
##########               SMILES:   CN(C)C(=O)C[NH+]1CCN(CC1)Cc2ccc(cc2)C#N
##########            Long Name:   2-[4-[(4-cyanophenyl)methyl]piperazin-1-ium-1-yl]-N,N-dimethyl-acetamide
##########          FlexRecCode: 1
##########               Number:                  442
##########   Ligand Source File: /raidb/db2/rgc/leads-emolecules-300/leads-emolecules-2b-0000193.db2.gz
##########           GlobalRank: 1037
##########                 Rank:                    1
##########               Setnum:                   15
##########             Matchnum:                 6833
##########                Cloud:                    1
##########        Electrostatic:           -29.236622
##########        Van der Waals:           -21.285465
##########  Ligand Polar Desolv:             9.784981
########## Ligand Apolar Desolv:            -2.098253
##########      Internal Energy:             0.000000
##########      Receptor Energy: 0.0
########## Receptor Desolvation:             0.000000
########## Receptor Hydrophobic:             0.000000
##########         Total Energy: -42.84
##########        Ligand Charge:             1.000000
##########            Arbitrary:    +999.9990
##########     heavy atom count:   21
##########           pose count:    1
##########        Ligand Energy:             0.000000
# num electro vdwattr vdwrepu polsolv apolsol rdesolv rhydroe totalscore fullpol fullapo
#   1   -0.29   -0.54    0.04    0.37   -0.16    0.00    0.00      -0.58    1.21   -0.54
#   2    5.16   -0.97    0.10   -3.79    0.69    0.00    0.00       1.20  -12.46    2.28
#   3   -0.50   -0.83    0.13    0.39   -0.19    0.00    0.00      -0.99    1.14   -0.54
#   4   -7.36   -2.08    1.04    3.71   -0.21    0.00    0.00      -4.90   10.96   -0.61
#   5    3.66   -3.29    2.56   -3.99    0.12    0.00    0.00      -0.94  -10.64    0.33
#   6    1.03   -1.67    0.92   -0.21   -0.08    0.00    0.00      -0.02   -0.58   -0.22
#   7    9.40   -1.71    0.88   -3.98    0.14    0.00    0.00       4.73  -10.76    0.37
#   8  -16.06   -0.12    0.03    5.37    0.20    0.00    0.00     -10.58   14.25    0.53
#   9    0.31   -0.98    0.13    0.07   -0.17    0.00    0.00      -0.64    0.17   -0.40
#  10   -0.52   -1.08    0.21    0.34   -0.16    0.00    0.00      -1.21    0.81   -0.39
#  11    7.10   -1.05    0.13   -4.60    1.06    0.00    0.00       2.64  -13.94    3.21
#  12   -0.77   -0.61    0.04    0.73   -0.13    0.00    0.00      -0.75    2.13   -0.39
#  13    0.27   -1.16    0.15   -0.17   -0.13    0.00    0.00      -1.03   -0.47   -0.34
#  14    0.04   -1.42    0.33   -0.70   -0.19    0.00    0.00      -1.94   -1.67   -0.46
#  15   -0.20   -1.68    0.63   -0.49   -0.21    0.00    0.00      -1.95   -1.07   -0.46
#  16   -0.02   -1.86    0.54   -0.50   -0.21    0.00    0.00      -2.03   -0.96   -0.40
#  17    0.10   -1.87    0.46   -0.50   -0.21    0.00    0.00      -2.02   -1.07   -0.46
#  18    0.36   -1.29    0.18   -0.71   -0.14    0.00    0.00      -1.59   -1.83   -0.37
#  19    0.96   -2.54    0.58    0.92   -0.91    0.00    0.00      -0.98    1.48   -1.46
#  20   -1.75   -4.74    2.64   -0.23    0.47    0.00    0.00      -3.60   -0.34    0.71
#  21   -0.26   -0.72    0.15   -0.05   -0.11    0.00    0.00      -0.99   -0.19   -0.37
#  22    0.04   -0.64    0.11    0.14   -0.12    0.00    0.00      -0.47    0.50   -0.43
#  23   -0.34   -0.15    0.01    0.27   -0.04    0.00    0.00      -0.26    1.60   -0.26
#  24   -0.25   -0.28    0.13    0.09   -0.06    0.00    0.00      -0.37    0.41   -0.28
#  25   -0.08   -0.15    0.01    0.07   -0.04    0.00    0.00      -0.19    0.46   -0.28
#  26   -1.31   -0.53    0.40    0.59   -0.08    0.00    0.00      -0.93    1.95   -0.28
#  27    0.10   -0.24    0.03    1.00   -0.05    0.00    0.00       0.84    4.24   -0.21
#  28   -0.72   -0.19    0.01    0.25   -0.05    0.00    0.00      -0.71    1.31   -0.27
#  29   -3.24   -0.75    1.50    2.33   -0.07    0.00    0.00      -0.22    8.28   -0.25
#  30   -5.48   -1.34    3.91    2.53   -0.07    0.00    0.00      -0.45    6.18   -0.16
#  31   -2.53   -0.28    0.04    0.70   -0.06    0.00    0.00      -2.13    2.50   -0.20
#  32   -3.63   -0.43    0.13    1.49   -0.11    0.00    0.00      -2.55    3.95   -0.28
#  33   -0.75   -0.33    0.08    0.73   -0.07    0.00    0.00      -0.35    2.17   -0.22
#  34   -3.34   -0.67    0.32    0.98   -0.13    0.00    0.00      -2.84    2.13   -0.28
#  35   -0.48   -0.25    0.07    0.41   -0.05    0.00    0.00      -0.30    2.27   -0.28
#  36   -0.90   -0.21    0.01    0.47   -0.07    0.00    0.00      -0.70    1.88   -0.27
#  37   -0.06   -0.27    0.04    0.74   -0.08    0.00    0.00       0.37    2.62   -0.28
#  38    0.91   -0.27    0.03    0.35   -0.08    0.00    0.00       0.94    1.16   -0.28
#  39   -0.49   -0.52    0.23    0.82   -0.11    0.00    0.00      -0.07    2.03   -0.28
#  40   -0.50   -0.19    0.01    0.94   -0.06    0.00    0.00       0.21    4.74   -0.28
#  41   -0.55   -0.11    0.00    0.37   -0.02    0.00    0.00      -0.30    3.55   -0.21
#  42   -2.85   -0.65    0.66    0.81   -0.06    0.00    0.00      -2.09    2.80   -0.21
#  43   -1.90   -0.15    0.02    0.54   -0.03    0.00    0.00      -1.52    4.33   -0.28
#  44   -1.57   -0.17    0.01    1.20   -0.05    0.00    0.00      -0.57    6.99   -0.28
@<TRIPOS>MOLECULE
E18816506
   44    45     0     0     0
SMALL
USER_CHARGES


@<TRIPOS>ATOM
      1 C1         25.6119   24.7352   59.4746 C.3       1             0.0798
      2 N1         24.3874   24.1191   59.9916 N.am      1            -0.5932
      3 C2         23.5961   24.8081   61.0140 C.3       1             0.0584
      4 C3         23.9888   22.9187   59.5264 C.2       1             0.4986
      5 O1         24.2535   22.5906   58.3892 O.2       1            -0.5252
      6 C4         23.2144   21.9838   60.4194 C.3       1            -0.0421
      7 N2         23.5023   20.5940   60.0407 N.4       1            -0.3695
      8 H1         23.5485   20.5226   59.0353 H         1             0.4352
      9 C5         22.4357   19.7188   60.5447 C.3       1            -0.0141
     10 C6         22.7271   18.2727   60.1378 C.3       1             0.0273
     11 N3         24.0233   17.8637   60.6964 N.3       1            -0.5314
     12 C7         23.9808   17.8429   62.1646 C.3       1             0.0926
     13 C8         23.3214   16.5701   62.6300 C.ar      1            -0.0690
     14 C9         21.9506   16.5323   62.8139 C.ar      1            -0.0926
     15 C10        21.3405   15.3706   63.2397 C.ar      1            -0.0673
     16 C11        22.1096   14.2312   63.4847 C.ar      1            -0.0104
     17 C12        23.4924   14.2765   63.2966 C.ar      1            -0.0694
     18 C13        24.0888   15.4434   62.8658 C.ar      1            -0.1191
     19 C14        21.4830   13.0221   63.9274 C.1       1             0.2371
     20 N4         20.9861   12.0628   64.2786 N.1       1            -0.3937
     21 C15        25.0969   18.7430   60.2129 C.3       1             0.0166
     22 C16        24.7890   20.1857   60.6197 C.3       1            -0.0027
     23 H2         26.0606   24.0805   58.7275 H         1             0.0909
     24 H3         25.3709   25.6954   59.0182 H         1             0.0748
     25 H4         26.3152   24.8884   60.2931 H         1             0.0744
     26 H5         22.7285   24.2009   61.2722 H         1             0.0740
     27 H6         24.2077   24.9643   61.9026 H         1             0.0744
     28 H7         23.2634   25.7716   60.6279 H         1             0.0942
     29 H8         23.5077   22.1459   61.4566 H         1             0.1600
     30 H9         22.1474   22.1769   60.3093 H         1             0.1555
     31 H10        22.3919   19.7885   61.6316 H         1             0.1527
     32 H11        21.4804   20.0298   60.1219 H         1             0.1433
     33 H12        21.9427   17.6212   60.5229 H         1             0.0555
     34 H13        22.7599   18.2002   59.0506 H         1             0.1268
     35 H14        24.9960   17.8909   62.5582 H         1             0.0592
     36 H15        23.4108   18.6997   62.5238 H         1             0.1023
     37 H16        21.3569   17.4142   62.6240 H         1             0.1369
     38 H17        20.2704   15.3426   63.3837 H         1             0.1383
     39 H18        24.0932   13.3987   63.4843 H         1             0.1369
     40 H19        25.1578   15.4785   62.7160 H         1             0.1296
     41 H20        26.0454   18.4353   60.6530 H         1             0.0601
     42 H21        25.1606   18.6765   59.1268 H         1             0.1296
     43 H22        25.5774   20.8427   60.2524 H         1             0.1466
     44 H23        24.7364   20.2537   61.7063 H         1             0.1381
@<TRIPOS>BOND
     1    1    2 1 
     2    1   23 1 
     3    1   24 1 
     4    1   25 1 
     5    2    3 1 
     6    2    4 am
     7    3   26 1 
     8    3   27 1 
     9    3   28 1 
    10    4    5 2 
    11    4    6 1 
    12    6    7 1 
    13    6   29 1 
    14    6   30 1 
    15    7    8 1 
    16    7   22 1 
    17    7    9 1 
    18    9   10 1 
    19    9   31 1 
    20    9   32 1 
    21   10   11 1 
    22   10   33 1 
    23   10   34 1 
    24   11   12 1 
    25   11   21 1 
    26   12   13 1 
    27   12   35 1 
    28   12   36 1 
    29   13   18 ar
    30   13   14 ar
    31   14   15 ar
    32   14   37 1 
    33   15   16 ar
    34   15   38 1 
    35   16   17 ar
    36   16   19 1 
    37   17   18 ar
    38   17   39 1 
    39   18   40 1 
    40   19   20 3 
    41   21   22 1 
    42   21   41 1 
    43   21   42 1 
    44   22   43 1 
    45   22   44 1 
##########                 Name:            E24832579
##########          Protonation:                   70
##########               SMILES:   COc1ccc(cc1O)CN2CC[NH+](CC2)CCO
##########            Long Name:   5-[[4-(2-hydroxyethyl)piperazin-4-ium-1-yl]methyl]-2-methoxy-phenol
##########          FlexRecCode: 1
##########               Number:                  611
##########   Ligand Source File: /raidb/db2/rgc/leads-emolecules-300/leads-lt300-emolecules-1d-0000199.db2.gz
##########           GlobalRank: 1053
##########                 Rank:                    1
##########               Setnum:                  192
##########             Matchnum:                 5911
##########                Cloud:                    1
##########        Electrostatic:           -35.414631
##########        Van der Waals:           -19.560457
##########  Ligand Polar Desolv:            11.858738
########## Ligand Apolar Desolv:             0.320740
##########      Internal Energy:             0.000000
##########      Receptor Energy: 0.0
########## Receptor Desolvation:             0.000000
########## Receptor Hydrophobic:             0.000000
##########         Total Energy: -42.8
##########        Ligand Charge:             1.000000
##########            Arbitrary:    +999.9990
##########     heavy atom count:   19
##########           pose count:    1
##########        Ligand Energy:             0.000000
# num electro vdwattr vdwrepu polsolv apolsol rdesolv rhydroe totalscore fullpol fullapo
#   1    0.07   -2.51    1.18    0.07    0.02    0.00    0.00      -1.17    0.11    0.03
#   2   -1.03   -1.82    0.23   -0.94    0.39    0.00    0.00      -3.16   -1.49    0.62
#   3    0.46   -1.73    0.37    0.04   -0.18    0.00    0.00      -1.04    0.07   -0.31
#   4   -1.33   -1.63    0.31   -1.18   -0.21    0.00    0.00      -4.04   -2.37   -0.42
#   5   -0.40   -1.88    0.56   -0.45   -0.17    0.00    0.00      -2.34   -1.01   -0.37
#   6    0.01   -1.51    0.25   -0.56   -0.14    0.00    0.00      -1.96   -1.33   -0.34
#   7   -0.38   -1.06    0.16    0.83   -0.13    0.00    0.00      -0.58    2.04   -0.33
#   8    4.77   -0.89    0.05   -4.43    1.19    0.00    0.00       0.70  -12.57    3.38
#   9   -0.29   -0.55    0.04    0.14   -0.12    0.00    0.00      -0.79    0.49   -0.43
#  10    0.99   -0.81    0.25   -0.32   -0.10    0.00    0.00       0.01   -1.11   -0.35
#  11   10.80   -2.62    3.89   -4.36    0.11    0.00    0.00       7.83  -11.07    0.28
#  12  -20.60   -0.40    0.58    5.75    0.22    0.00    0.00     -14.44   13.29    0.51
#  13    0.14   -1.39    0.48    0.13   -0.15    0.00    0.00      -0.79    0.33   -0.38
#  14   -0.88   -1.10    0.29    0.26   -0.05    0.00    0.00      -1.47    0.79   -0.14
#  15    7.12   -3.33    3.75   -5.36    0.62    0.00    0.00       2.80  -14.42    1.68
#  16    1.13   -1.38    0.35   -0.37   -0.16    0.00    0.00      -0.43   -0.82   -0.37
#  17   -0.39   -0.72    0.06    0.30   -0.18    0.00    0.00      -0.94    0.72   -0.44
#  18    0.03   -1.65    0.36   -0.49   -0.20    0.00    0.00      -1.96   -1.11   -0.46
#  19    0.13   -1.98    0.51   -0.09   -0.16    0.00    0.00      -1.59   -0.18   -0.31
#  20   -0.62   -3.36    1.81   -0.94    0.45    0.00    0.00      -2.65   -1.66    0.80
#  21    0.08   -1.28    1.21    0.57   -0.19    0.00    0.00       0.39    0.84   -0.28
#  22    0.26   -0.97    1.35    0.48   -0.16    0.00    0.00       0.96    0.80   -0.27
#  23    0.15   -0.98    0.78    0.56   -0.17    0.00    0.00       0.34    0.86   -0.26
#  24    1.51   -0.29    0.03    0.75   -0.08    0.00    0.00       1.92    2.13   -0.22
#  25    0.87   -0.59    0.43    1.70   -0.09    0.00    0.00       2.32    4.85   -0.27
#  26   -0.35   -0.44    0.07    0.74   -0.11    0.00    0.00      -0.10    1.78   -0.27
#  27   -0.22   -0.63    0.42    1.04   -0.05    0.00    0.00       0.56    3.23   -0.17
#  28   -1.39   -0.23    0.02    0.36   -0.04    0.00    0.00      -1.29    1.69   -0.20
#  29   -0.88   -0.20    0.05    0.37   -0.04    0.00    0.00      -0.71    2.35   -0.28
#  30   -1.95   -0.19    0.04    0.72   -0.03    0.00    0.00      -1.40    5.01   -0.21
#  31   -2.14   -0.25    0.05    1.10   -0.05    0.00    0.00      -1.29    5.08   -0.22
#  32   -4.48   -1.01    1.43    1.74   -0.11    0.00    0.00      -2.43    4.25   -0.28
#  33   -2.88   -0.35    0.11    1.71   -0.08    0.00    0.00      -1.49    6.02   -0.28
#  34   -1.83   -0.35    0.10    0.47   -0.08    0.00    0.00      -1.69    1.70   -0.28
#  35   -0.91   -0.15    0.01    0.46   -0.04    0.00    0.00      -0.63    2.80   -0.23
#  36  -10.14   -0.32    0.38    3.81    0.48    0.00    0.00      -5.78    9.74    1.24
#  37   -3.44   -0.61    0.28    2.14   -0.10    0.00    0.00      -1.73    4.82   -0.23
#  38   -2.90   -0.74    0.79    2.23   -0.12    0.00    0.00      -0.74    5.25   -0.28
#  39   -0.84   -0.28    0.07    0.67   -0.08    0.00    0.00      -0.46    2.49   -0.28
#  40   -1.66   -0.23    0.02    0.60   -0.07    0.00    0.00      -1.34    2.37   -0.28
#  41   -0.28   -0.28    0.04    0.36   -0.08    0.00    0.00      -0.23    1.31   -0.28
#  42   -1.73   -0.08    0.01    1.25    0.57    0.00    0.00       0.02    2.66    1.22
@<TRIPOS>MOLECULE
E24832579
   42    43     0     0     0
SMALL
USER_CHARGES


@<TRIPOS>ATOM
      1 C1         19.6168   12.4942   62.5090 C.3       1             0.0228
      2 O1         20.1006   13.0620   63.7278 O.3       1            -0.3032
      3 C2         20.9223   14.1406   63.6231 C.ar      1             0.1162
      4 C3         20.3906   15.4201   63.6138 C.ar      1            -0.1945
      5 C4         21.2274   16.5155   63.5078 C.ar      1            -0.0884
      6 C5         22.5950   16.3378   63.4106 C.ar      1            -0.1204
      7 C6         23.5023   17.5353   63.2948 C.3       1             0.0913
      8 N1         23.6921   17.8706   61.8772 N.3       1            -0.5201
      9 C7         24.6389   18.9837   61.7216 C.3       1             0.0266
     10 C8         24.8583   19.2552   60.2317 C.3       1            -0.0559
     11 N2         23.5749   19.5913   59.6009 N.4       1            -0.3777
     12 H1         23.7216   19.7799   58.6207 H         1             0.4315
     13 C9         23.0083   20.7819   60.2487 C.3       1            -0.0053
     14 C10        23.9765   21.9564   60.0932 C.3       1             0.0457
     15 O2         24.1833   22.2226   58.7045 O.3       1            -0.5803
     16 C11        22.6437   18.4649   59.7482 C.3       1            -0.0502
     17 C12        22.4091   18.1878   61.2347 C.3       1             0.0315
     18 C13        23.1319   15.0640   63.4198 C.ar      1            -0.0797
     19 C14        22.2992   13.9619   63.5310 C.ar      1             0.0824
     20 O3         22.8262   12.7083   63.5454 O.3       1            -0.4838
     21 H2         18.9743   11.6432   62.7346 H         1             0.1076
     22 H3         19.0474   13.2439   61.9597 H         1             0.0579
     23 H4         20.4599   12.1623   61.9030 H         1             0.0581
     24 H5         19.3226   15.5616   63.6889 H         1             0.1362
     25 H6         20.8117   17.5123   63.5006 H         1             0.1184
     26 H7         23.0528   18.3831   63.8117 H         1             0.1001
     27 H8         24.4675   17.3049   63.7461 H         1             0.0458
     28 H9         24.2334   19.8760   62.1985 H         1             0.1275
     29 H10        25.5888   18.7213   62.1875 H         1             0.1058
     30 H11        25.5509   20.0884   60.1123 H         1             0.1286
     31 H12        25.2742   18.3663   59.7577 H         1             0.1369
     32 H13        22.0561   21.0316   59.7808 H         1             0.1387
     33 H14        22.8507   20.5788   61.3079 H         1             0.1393
     34 H15        23.5561   22.8397   60.5739 H         1             0.0954
     35 H16        24.9288   21.7066   60.5610 H         1             0.0708
     36 H17        24.5563   21.4781   58.2127 H         1             0.4102
     37 H18        21.6956   18.7125   59.2707 H         1             0.1284
     38 H19        23.0679   17.5788   59.2761 H         1             0.1392
     39 H20        21.7284   17.3436   61.3446 H         1             0.1069
     40 H21        21.9745   19.0698   61.7053 H         1             0.1270
     41 H22        24.2006   14.9278   63.3440 H         1             0.1397
     42 H23        23.7904   12.6861   63.4766 H         1             0.3930
@<TRIPOS>BOND
     1    1    2 1 
     2    1   21 1 
     3    1   22 1 
     4    1   23 1 
     5    2    3 1 
     6    3   19 ar
     7    3    4 ar
     8    4    5 ar
     9    4   24 1 
    10    5    6 ar
    11    5   25 1 
    12    6    7 1 
    13    6   18 ar
    14    7    8 1 
    15    7   26 1 
    16    7   27 1 
    17    8   17 1 
    18    8    9 1 
    19    9   10 1 
    20    9   28 1 
    21    9   29 1 
    22   10   11 1 
    23   10   30 1 
    24   10   31 1 
    25   11   12 1 
    26   11   13 1 
    27   11   16 1 
    28   13   14 1 
    29   13   32 1 
    30   13   33 1 
    31   14   15 1 
    32   14   34 1 
    33   14   35 1 
    34   15   36 1 
    35   16   17 1 
    36   16   37 1 
    37   16   38 1 
    38   17   39 1 
    39   17   40 1 
    40   18   19 ar
    41   18   41 1 
    42   19   20 1 
    43   20   42 1 
##########                 Name:             E1310950
##########          Protonation:                   84
##########               SMILES:   C[NH+](C)CCO/N=C(/c1ccc(cc1)F)\c2cccnc2
##########            Long Name:   [(Z)-[(4-fluorophenyl)-(3-pyridyl)methylene]amino]oxyethyl-dimethyl-ammonium
##########          FlexRecCode: 1
##########               Number:                  706
##########   Ligand Source File: /raidb/db2/rgc/leads-emolecules-300/leads-emolecules-3-ad-0000009.db2.gz
##########           GlobalRank: 1086
##########                 Rank:                    1
##########               Setnum:                  124
##########             Matchnum:                 3822
##########                Cloud:                    1
##########        Electrostatic:           -21.056261
##########        Van der Waals:           -26.413774
##########  Ligand Polar Desolv:             9.036833
########## Ligand Apolar Desolv:            -4.310563
##########      Internal Energy:             0.000000
##########      Receptor Energy: 0.0
########## Receptor Desolvation:             0.000000
########## Receptor Hydrophobic:             0.000000
##########         Total Energy: -42.74
##########        Ligand Charge:             1.000000
##########            Arbitrary:    +999.9990
##########     heavy atom count:   21
##########           pose count:    1
##########        Ligand Energy:             0.000000
# num electro vdwattr vdwrepu polsolv apolsol rdesolv rhydroe totalscore fullpol fullapo
#   1    0.82   -1.13    0.32   -0.58   -0.20    0.00    0.00      -0.77   -1.41   -0.48
#   2    7.03   -1.20    0.13   -5.46    0.22    0.00    0.00       0.72  -11.34    0.46
#   3   -8.25   -0.03    0.00    4.72    0.18    0.00    0.00      -3.37   12.62    0.49
#   4    1.45   -1.79    0.69   -0.88   -0.23    0.00    0.00      -0.75   -1.79   -0.47
#   5    0.02   -0.97    0.17    0.31   -0.17    0.00    0.00      -0.64    0.69   -0.38
#   6   -0.29   -2.00    1.16    0.14   -0.06    0.00    0.00      -1.06    0.26   -0.12
#   7   -0.19   -3.78    6.01   -2.27    0.17    0.00    0.00      -0.07   -4.52    0.34
#   8   -3.21   -2.78    1.26   -2.51    0.52    0.00    0.00      -6.73   -4.83    1.00
#   9    2.59   -1.79    0.28    1.56   -0.41    0.00    0.00       2.23    2.83   -0.74
#  10   -1.05   -1.97    0.35   -0.43   -0.24    0.00    0.00      -3.35   -0.72   -0.40
#  11   -0.51   -2.48    0.61   -0.37   -0.24    0.00    0.00      -2.99   -0.60   -0.39
#  12   -1.10   -3.21    0.80   -0.93   -0.31    0.00    0.00      -4.74   -1.41   -0.47
#  13    1.45   -2.96    1.15    0.19   -0.22    0.00    0.00      -0.40    0.29   -0.34
#  14   -1.08   -2.15    1.07   -0.46   -0.32    0.00    0.00      -2.94   -0.69   -0.48
#  15   -2.32   -2.54    0.76   -0.89   -0.29    0.00    0.00      -5.27   -1.42   -0.47
#  16   -0.61   -2.56    0.71   -0.31   -0.27    0.00    0.00      -3.04   -0.53   -0.46
#  17   -0.80   -1.66    0.28   -1.28   -0.21    0.00    0.00      -3.66   -2.16   -0.35
#  18   -0.14   -1.69    0.42   -0.43   -0.19    0.00    0.00      -2.02   -0.83   -0.36
#  19   -0.26   -2.13    0.57   -1.22   -0.25    0.00    0.00      -3.30   -2.30   -0.48
#  20    0.63   -4.27    2.73    0.69   -0.60    0.00    0.00      -0.83    1.12   -0.98
#  21   -2.13   -4.20    1.85   -4.47    1.37    0.00    0.00      -7.58   -6.69    2.05
#  22    0.41   -2.46    0.52    1.30   -0.54    0.00    0.00      -0.77    2.04   -0.85
#  23   -1.72   -0.17    0.01    0.64   -0.05    0.00    0.00      -1.29    3.77   -0.28
#  24   -2.80   -0.38    0.14    1.07   -0.09    0.00    0.00      -2.06    3.48   -0.28
#  25   -1.83   -0.80    0.76    1.66   -0.11    0.00    0.00      -0.31    4.41   -0.28
#  26   -3.71   -1.11    2.06    2.00   -0.14    0.00    0.00      -0.90    3.93   -0.28
#  27   -4.32   -1.07    1.65    2.09   -0.13    0.00    0.00      -1.78    4.57   -0.28
#  28   -2.82   -0.41    0.10    1.11   -0.08    0.00    0.00      -2.10    3.00   -0.21
#  29   -1.16   -0.23    0.04    1.39   -0.06    0.00    0.00      -0.02    6.44   -0.28
#  30   -0.26   -0.49    0.42    1.33   -0.09    0.00    0.00       0.91    4.16   -0.28
#  31   -0.67   -0.65    0.38    1.36   -0.11    0.00    0.00       0.30    2.70   -0.22
#  32   -1.42   -0.95    0.81    0.87   -0.14    0.00    0.00      -0.83    1.70   -0.28
#  33    1.06   -0.74    0.64    1.06   -0.10    0.00    0.00       1.92    2.15   -0.20
#  34    0.46   -1.11    0.57    0.98   -0.18    0.00    0.00       0.73    1.52   -0.28
#  35    2.04   -0.43    0.07    0.67   -0.13    0.00    0.00       2.22    1.43   -0.28
#  36    1.88   -0.65    0.19    1.15   -0.14    0.00    0.00       2.43    2.08   -0.26
#  37    0.43   -0.28    0.04    0.61   -0.07    0.00    0.00       0.72    1.98   -0.24
#  38   -0.05   -0.39    0.10    0.87   -0.10    0.00    0.00       0.43    2.35   -0.28
#  39    1.01   -2.23    5.45    1.53   -0.17    0.00    0.00       5.59    2.58   -0.28
#  40    0.35   -0.87    1.03    2.22   -0.12    0.00    0.00       2.60    3.92   -0.22
@<TRIPOS>MOLECULE
E1310950
   40    41     0     0     0
SMALL
USER_CHARGES


@<TRIPOS>ATOM
      1 C1         22.6151   19.9517   61.6040 C.3       1            -0.0475
      2 N1         21.6090   19.2219   60.8210 N.4       1            -0.3910
      3 H1         20.7748   19.7835   60.7386 H         1             0.4287
      4 C2         22.1424   18.9377   59.4820 C.3       1            -0.0552
      5 C3         21.2842   17.9588   61.4969 C.3       1            -0.0028
      6 C4         20.2363   17.1988   60.6815 C.3       1             0.0403
      7 O1         19.9204   15.9699   61.3391 O.3       1            -0.2550
      8 N2         19.0106   16.1100   62.4151 N.2       1            -0.3235
      9 C5         19.0666   15.2909   63.4259 C.2       1             0.2558
     10 C6         18.0159   15.3290   64.4691 C.ar      1            -0.0829
     11 C7         18.3235   14.9831   65.7850 C.ar      1            -0.0561
     12 C8         17.3419   15.0207   66.7530 C.ar      1            -0.1546
     13 C9         16.0511   15.4017   66.4197 C.ar      1             0.1355
     14 F1         15.0927   15.4369   67.3712 F         1            -0.1263
     15 C10        15.7412   15.7467   65.1142 C.ar      1            -0.1574
     16 C11        16.7170   15.7169   64.1402 C.ar      1            -0.0400
     17 C12        20.1813   14.3208   63.5323 C.ar      1            -0.1543
     18 C13        21.5055   14.7651   63.6106 C.ar      1            -0.0424
     19 C14        22.5103   13.8187   63.7087 C.ar      1            -0.1636
     20 C15        22.1766   12.4764   63.7261 C.ar      1             0.1229
     21 N3         20.9186   12.0870   63.6508 N.ar      1            -0.4870
     22 C16        19.9276   12.9503   63.5621 C.ar      1             0.1320
     23 H2         23.5163   19.3451   61.6931 H         1             0.1264
     24 H3         22.8560   20.8891   61.1026 H         1             0.1241
     25 H4         22.2194   20.1626   62.5976 H         1             0.1243
     26 H5         21.3958   18.3962   58.9011 H         1             0.1275
     27 H6         22.3834   19.8749   58.9805 H         1             0.1263
     28 H7         23.0435   18.3310   59.5713 H         1             0.1221
     29 H8         22.1853   17.3522   61.5860 H         1             0.1513
     30 H9         20.8885   18.1696   62.4905 H         1             0.1403
     31 H10        19.3351   17.8054   60.5926 H         1             0.0847
     32 H11        20.6318   16.9879   59.6879 H         1             0.1065
     33 H12        19.3287   14.6858   66.0452 H         1             0.1409
     34 H13        17.5790   14.7526   67.7720 H         1             0.1488
     35 H14        14.7343   16.0432   64.8599 H         1             0.1478
     36 H15        16.4750   15.9896   63.1236 H         1             0.1440
     37 H16        21.7376   15.8198   63.5945 H         1             0.1479
     38 H17        23.5442   14.1249   63.7706 H         1             0.1499
     39 H18        22.9586   11.7353   63.8022 H         1             0.1673
     40 H19        18.9099   12.5930   63.5070 H         1             0.1442
@<TRIPOS>BOND
     1    1    2 1 
     2    1   23 1 
     3    1   24 1 
     4    1   25 1 
     5    2    3 1 
     6    2    4 1 
     7    2    5 1 
     8    4   26 1 
     9    4   27 1 
    10    4   28 1 
    11    5    6 1 
    12    5   29 1 
    13    5   30 1 
    14    6    7 1 
    15    6   31 1 
    16    6   32 1 
    17    7    8 1 
    18    8    9 2 
    19    9   10 1 
    20    9   17 1 
    21   10   16 ar
    22   10   11 ar
    23   11   12 ar
    24   11   33 1 
    25   12   13 ar
    26   12   34 1 
    27   13   14 1 
    28   13   15 ar
    29   15   16 ar
    30   15   35 1 
    31   16   36 1 
    32   17   22 ar
    33   17   18 ar
    34   18   19 ar
    35   18   37 1 
    36   19   20 ar
    37   19   38 1 
    38   20   21 ar
    39   20   39 1 
    40   21   22 ar
    41   22   40 1 
##########                 Name:            E25855415
##########          Protonation:                  100
##########               SMILES:   Cn1c2ccccc2nc1/N=C/c3ccccc3[N+](=O)[O-]
##########            Long Name:   N-(1-methylbenzimidazol-2-yl)-1-(2-nitrophenyl)methanimine
##########          FlexRecCode: 1
##########               Number:                   95
##########   Ligand Source File: /raidb/db2/rgc/leads-emolecules-300/leads-lt300-emolecules-1j-0000087.db2.gz
##########           GlobalRank: 1097
##########                 Rank:                    1
##########               Setnum:                   14
##########             Matchnum:                 3864
##########                Cloud:                    1
##########        Electrostatic:           -12.632285
##########        Van der Waals:           -32.084267
##########  Ligand Polar Desolv:             7.917055
########## Ligand Apolar Desolv:            -5.920146
##########      Internal Energy:             0.000000
##########      Receptor Energy: 0.0
########## Receptor Desolvation:             0.000000
########## Receptor Hydrophobic:             0.000000
##########         Total Energy: -42.72
##########        Ligand Charge:             0.000000
##########            Arbitrary:    +999.9990
##########     heavy atom count:   21
##########           pose count:    1
##########        Ligand Energy:             0.000000
# num electro vdwattr vdwrepu polsolv apolsol rdesolv rhydroe totalscore fullpol fullapo
#   1    0.37   -2.66    1.17    0.03   -0.39    0.00    0.00      -1.47    0.05   -0.59
#   2   -4.80   -2.34    0.34    1.59    0.92    0.00    0.00      -4.30    2.44    1.41
#   3    7.26   -2.38    0.61   -2.07   -2.89    0.00    0.00       0.54   -3.37   -4.71
#   4   -7.88   -3.00    1.70    1.58    1.02    0.00    0.00      -6.59    2.84    1.84
#   5    2.14   -1.72    0.28   -0.71   -0.43    0.00    0.00      -0.43   -1.35   -0.83
#   6   -0.09   -1.64    0.37    0.05   -0.18    0.00    0.00      -1.50    0.10   -0.41
#   7   -0.10   -1.66    0.42   -0.08   -0.20    0.00    0.00      -1.61   -0.18   -0.45
#   8    0.37   -1.13    0.10   -0.15   -0.19    0.00    0.00      -0.99   -0.36   -0.47
#   9    0.38   -1.16    0.13   -0.19   -0.17    0.00    0.00      -1.01   -0.51   -0.47
#  10    0.05   -1.55    0.30   -0.07   -0.19    0.00    0.00      -1.45   -0.16   -0.45
#  11   -0.05   -1.70    0.40    0.05   -0.34    0.00    0.00      -1.63    0.11   -0.70
#  12    0.13   -2.27    0.59   -0.14    0.24    0.00    0.00      -1.46   -0.24    0.42
#  13   -0.60   -2.19    0.77    0.60   -0.39    0.00    0.00      -1.81    0.97   -0.63
#  14   -0.63   -3.41    2.30    1.38   -0.31    0.00    0.00      -0.67    2.36   -0.53
#  15  -10.09   -3.28    1.65    3.80    1.21    0.00    0.00      -6.71    6.36    2.02
#  16    0.84   -2.65    0.84    0.04   -0.48    0.00    0.00      -1.42    0.06   -0.79
#  17   -0.68   -2.76    0.92    0.37   -0.29    0.00    0.00      -2.43    0.60   -0.47
#  18   -1.23   -2.21    0.64    0.11   -0.31    0.00    0.00      -2.99    0.17   -0.47
#  19   -0.73   -3.25    1.67   -0.02   -0.30    0.00    0.00      -2.63   -0.03   -0.47
#  20   -0.58   -3.79    2.03    0.09   -0.30    0.00    0.00      -2.55    0.14   -0.47
#  21    0.60   -2.71    0.92   -0.12   -0.49    0.00    0.00      -1.80   -0.18   -0.75
#  22    0.54   -0.97    1.06    0.10   -0.16    0.00    0.00       0.58    0.18   -0.28
#  23    0.35   -1.30    0.84    0.10   -0.18    0.00    0.00      -0.19    0.16   -0.28
#  24   -0.21   -1.21    1.34    0.25   -0.17    0.00    0.00      -0.01    0.41   -0.28
#  25    1.40   -0.33    0.04   -0.54   -0.04    0.00    0.00       0.53   -1.45   -0.10
#  26    0.69   -0.71    1.28    0.22   -0.09    0.00    0.00       1.38    0.62   -0.27
#  27   -1.44   -0.17    0.01    0.51   -0.06    0.00    0.00      -1.15    2.50   -0.28
#  28   -0.89   -0.18    0.01    0.41   -0.05    0.00    0.00      -0.69    2.54   -0.28
#  29   -0.26   -0.32    0.05    0.24   -0.08    0.00    0.00      -0.36    0.76   -0.26
#  30    0.68   -1.16    1.86   -0.43   -0.16    0.00    0.00       0.79   -0.78   -0.28
#  31    1.13   -0.38    0.06    0.16   -0.13    0.00    0.00       0.84    0.35   -0.28
#  32    0.92   -0.92    0.67    0.48   -0.16    0.00    0.00       1.00    0.85   -0.28
#  33   -0.22   -1.11    0.72    0.26   -0.18    0.00    0.00      -0.54    0.40   -0.28
@<TRIPOS>MOLECULE
E25855415
   33    35     0     0     0
SMALL
USER_CHARGES


@<TRIPOS>ATOM
      1 C1         18.1252   14.4727   66.8535 C.3       1             0.0839
      2 N1         17.2400   15.1667   65.9148 N.pl3     1            -0.4719
      3 C2         17.6265   15.9881   64.8875 C.2       1             0.4264
      4 N2         18.9124   16.2945   64.5720 N.2       1            -0.4591
      5 C3         19.5719   15.5514   63.7240 C.2       1             0.2094
      6 C4         20.9638   15.8831   63.3827 C.ar      1            -0.0179
      7 C5         21.2710   17.1212   62.8082 C.ar      1            -0.0695
      8 C6         22.5779   17.4244   62.4912 C.ar      1            -0.0758
      9 C7         23.5849   16.5077   62.7398 C.ar      1            -0.0960
     10 C8         23.2893   15.2809   63.3077 C.ar      1            -0.0572
     11 C9         21.9878   14.9646   63.6360 C.ar      1            -0.0195
     12 N3         21.6745   13.6543   64.2491 N.pl3     1             0.0323
     13 O1         20.5322   13.3767   64.5317 O.2       1            -0.1375
     14 O2         22.5610   12.8617   64.4675 O.3       1            -0.1576
     15 N4         16.5651   16.4342   64.2539 N.2       1            -0.4944
     16 C10        15.4466   15.9318   64.8300 C.ar      1             0.0556
     17 C11        14.0809   16.0776   64.5635 C.ar      1            -0.0595
     18 C12        13.1629   15.4290   65.3396 C.ar      1            -0.1261
     19 C13        13.5698   14.6238   66.3940 C.ar      1            -0.0938
     20 C14        14.9108   14.4650   66.6757 C.ar      1            -0.1126
     21 C15        15.8589   15.1112   65.8953 C.ar      1             0.0596
     22 H1         19.1625   14.7111   66.6185 H         1             0.0757
     23 H2         17.8999   14.7940   67.8704 H         1             0.0925
     24 H3         17.9716   13.3969   66.7700 H         1             0.0851
     25 H4         19.0952   14.6932   63.2736 H         1             0.1811
     26 H5         20.4864   17.8372   62.6134 H         1             0.1577
     27 H6         22.8167   18.3797   62.0473 H         1             0.1498
     28 H7         24.6068   16.7510   62.4888 H         1             0.1533
     29 H8         24.0805   14.5709   63.4982 H         1             0.1613
     30 H9         13.7530   16.7024   63.7458 H         1             0.1337
     31 H10        12.1096   15.5441   65.1307 H         1             0.1332
     32 H11        12.8315   14.1183   66.9988 H         1             0.1335
     33 H12        15.2216   13.8370   67.4976 H         1             0.1244
@<TRIPOS>BOND
     1    1    2 1 
     2    1   22 1 
     3    1   23 1 
     4    1   24 1 
     5    2   21 1 
     6    2    3 1 
     7    3    4 1 
     8    3   15 2 
     9    4    5 2 
    10    5    6 1 
    11    5   25 1 
    12    6   11 ar
    13    6    7 ar
    14    7    8 ar
    15    7   26 1 
    16    8    9 ar
    17    8   27 1 
    18    9   10 ar
    19    9   28 1 
    20   10   11 ar
    21   10   29 1 
    22   11   12 1 
    23   12   13 2 
    24   12   14 1 
    25   15   16 1 
    26   16   21 ar
    27   16   17 ar
    28   17   18 ar
    29   17   30 1 
    30   18   19 ar
    31   18   31 1 
    32   19   20 ar
    33   19   32 1 
    34   20   21 ar
    35   20   33 1 
##########                 Name:            E37010354
##########          Protonation:                   73
##########               SMILES:   Cc1c(c[nH]n1)C[NH2+]C[C@@H](COc2ccc(cc2)F)O
##########            Long Name:   -fluorophenoxy)-2-hydroxy-propyl]-[(3-methyl-1H-pyrazol-4-yl)methyl]ammonium
##########          FlexRecCode: 1
##########               Number:                  199
##########   Ligand Source File: /raidb/db2/rgc/leads-emolecules-300/leads-lt300-emolecules-1i-0000296.db2.gz
##########           GlobalRank: 1137
##########                 Rank:                    1
##########               Setnum:                  257
##########             Matchnum:                 1472
##########                Cloud:                    1
##########        Electrostatic:           -24.141796
##########        Van der Waals:           -24.946321
##########  Ligand Polar Desolv:             7.272303
########## Ligand Apolar Desolv:            -0.845155
##########      Internal Energy:             0.000000
##########      Receptor Energy: 0.0
########## Receptor Desolvation:             0.000000
########## Receptor Hydrophobic:             0.000000
##########         Total Energy: -42.66
##########        Ligand Charge:             1.000000
##########            Arbitrary:    +999.9990
##########     heavy atom count:   20
##########           pose count:    1
##########        Ligand Energy:             0.000000
# num electro vdwattr vdwrepu polsolv apolsol rdesolv rhydroe totalscore fullpol fullapo
#   1    0.15   -0.58    0.10   -0.46   -0.05    0.00    0.00      -0.84   -1.86   -0.21
#   2   -0.52   -0.82    0.08    0.34   -0.22    0.00    0.00      -1.14    1.24   -0.79
#   3    1.30   -0.88    0.06   -1.76    0.39    0.00    0.00      -0.89   -5.48    1.22
#   4    4.05   -1.40    0.34   -2.57    0.24    0.00    0.00       0.65   -7.94    0.75
#   5   -1.94   -1.80    0.72    0.74   -0.32    0.00    0.00      -2.60    2.32   -1.01
#   6    3.75   -1.02    0.17   -1.99   -0.11    0.00    0.00       0.79   -7.06   -0.40
#   7   -1.25   -0.61    0.10    1.00   -0.11    0.00    0.00      -0.86    3.80   -0.42
#   8    8.82   -1.01    0.18   -5.99    0.25    0.00    0.00       2.25  -17.77    0.73
#   9   -7.37   -0.04    0.00    4.03    0.13    0.00    0.00      -3.25   15.31    0.48
#  10  -10.19   -0.02    0.00    4.96    0.17    0.00    0.00      -5.08   16.53    0.57
#  11    0.54   -0.60    0.03   -0.07   -0.13    0.00    0.00      -0.22   -0.20   -0.38
#  12   -0.80   -0.84    0.07    1.08   -0.06    0.00    0.00      -0.55    2.67   -0.15
#  13    4.43   -3.50    1.83   -7.22    0.72    0.00    0.00      -3.73  -15.10    1.51
#  14   -0.10   -0.82    0.07   -0.21   -0.03    0.00    0.00      -1.10   -0.50   -0.08
#  15   -0.76   -1.63    0.44   -2.44    0.36    0.00    0.00      -4.03   -5.37    0.79
#  16    0.42   -1.69    0.41    0.77   -0.14    0.00    0.00      -0.22    1.73   -0.31
#  17   -1.32   -1.59    0.25   -1.20   -0.22    0.00    0.00      -4.08   -2.30   -0.42
#  18   -0.56   -1.85    0.31   -0.74   -0.28    0.00    0.00      -3.13   -1.22   -0.47
#  19    0.27   -2.40    0.45   -0.16   -0.21    0.00    0.00      -2.05   -0.25   -0.34
#  20   -0.32   -2.96    1.57   -0.32   -0.33    0.00    0.00      -2.36   -0.46   -0.48
#  21   -0.28   -2.36    0.58   -0.52   -0.27    0.00    0.00      -2.85   -0.91   -0.47
#  22   -0.17   -1.77    0.44   -0.70   -0.22    0.00    0.00      -2.42   -1.46   -0.46
#  23   -0.02   -0.22    0.04    0.26   -0.05    0.00    0.00       0.01    1.38   -0.28
#  24   -0.09   -0.08    0.00    0.02   -0.02    0.00    0.00      -0.17    0.24   -0.28
#  25   -0.05   -0.34    0.17    1.09   -0.06    0.00    0.00       0.81    4.65   -0.24
#  26   -4.36   -0.02    0.00    1.52    0.09    0.00    0.00      -2.78    6.92    0.40
#  27   -4.99   -0.62    0.48    2.33   -0.09    0.00    0.00      -2.90    7.20   -0.28
#  28   -2.69   -0.37    0.32    1.36   -0.05    0.00    0.00      -1.43    7.27   -0.28
#  29   -1.02   -0.10    0.00    0.60   -0.03    0.00    0.00      -0.54    5.91   -0.28
#  30   -2.06   -0.14    0.01    1.14   -0.04    0.00    0.00      -1.11    7.78   -0.28
#  31   -1.23   -0.23    0.03    1.46   -0.06    0.00    0.00      -0.03    7.23   -0.28
#  32   -1.63   -0.21    0.01    0.81   -0.07    0.00    0.00      -1.08    3.37   -0.28
#  33   -6.17   -0.18    0.05    5.29    0.56    0.00    0.00      -0.45   11.60    1.22
#  34   -0.44   -0.20    0.03    0.62   -0.05    0.00    0.00      -0.03    3.25   -0.26
#  35   -0.25   -0.38    0.08    0.93   -0.09    0.00    0.00       0.28    2.87   -0.27
#  36    1.79   -0.34    0.06    1.59   -0.08    0.00    0.00       3.02    4.39   -0.22
#  37    0.77   -0.59    0.46    0.83   -0.13    0.00    0.00       1.34    1.78   -0.28
#  38    0.19   -0.76    0.38    0.41   -0.14    0.00    0.00       0.08    0.82   -0.28
#  39   -0.05   -0.31    0.05    0.43   -0.08    0.00    0.00       0.04    1.44   -0.28
@<TRIPOS>MOLECULE
E37010354
   39    40     0     0     0
SMALL
USER_CHARGES


@<TRIPOS>ATOM
      1 C1         27.3295   22.5881   58.8819 C.3       1            -0.0873
      2 C2         25.9353   23.0631   59.2008 C.2       1             0.0982
      3 N1         25.4225   24.2186   58.8637 N.2       1            -0.2678
      4 N2         24.1086   24.2719   59.3464 N.pl3     1            -0.4540
      5 C3         23.8526   23.1102   59.9834 C.2       1             0.1209
      6 C4         24.9640   22.3423   59.9033 C.2       1            -0.3272
      7 C5         25.1273   20.9567   60.4727 C.3       1             0.0883
      8 N3         23.8816   20.5505   61.1371 N.4       1            -0.5051
      9 H1         23.6714   21.1976   61.8822 H         1             0.4302
     10 H2         23.1272   20.5520   60.4673 H         1             0.4288
     11 C6         24.0409   19.1997   61.6923 C.3       1            -0.0431
     12 C7         22.7435   18.7766   62.3843 C.3       1             0.0856
     13 O1         22.4456   19.6932   63.4393 O.3       1            -0.5432
     14 C8         22.9094   17.3698   62.9626 C.3       1             0.0278
     15 O2         21.6977   16.9746   63.6089 O.3       1            -0.2990
     16 C9         21.4094   15.6461   63.6208 C.ar      1             0.1084
     17 C10        20.0886   15.2224   63.6257 C.ar      1            -0.1799
     18 C11        19.7972   13.8720   63.6379 C.ar      1            -0.1138
     19 C12        20.8226   12.9419   63.6457 C.ar      1             0.0735
     20 F1         20.5362   11.6217   63.6581 F         1            -0.1336
     21 C13        22.1414   13.3634   63.6405 C.ar      1            -0.1104
     22 C14        22.4358   14.7131   63.6225 C.ar      1            -0.1139
     23 H3         27.8585   23.3618   58.3253 H         1             0.0932
     24 H4         27.8630   22.3786   59.8089 H         1             0.0904
     25 H5         27.2756   21.6806   58.2805 H         1             0.0681
     26 H6         23.4918   25.0132   59.2414 H         1             0.4547
     27 H7         22.9254   22.8399   60.4667 H         1             0.1910
     28 H8         25.3544   20.2575   59.6679 H         1             0.1371
     29 H9         25.9424   20.9550   61.1963 H         1             0.1371
     30 H10        24.2681   18.5006   60.8875 H         1             0.1477
     31 H11        24.8560   19.1981   62.4159 H         1             0.1405
     32 H12        21.9285   18.7782   61.6605 H         1             0.1354
     33 H13        22.3272   20.6067   63.1450 H         1             0.3901
     34 H14        23.1366   16.6706   62.1579 H         1             0.0831
     35 H15        23.7245   17.3683   63.6864 H         1             0.0783
     36 H16        19.2886   15.9479   63.6203 H         1             0.1345
     37 H17        18.7688   13.5419   63.6417 H         1             0.1423
     38 H18        22.9404   12.6368   63.6462 H         1             0.1486
     39 H19        23.4646   15.0417   63.6142 H         1             0.1445
@<TRIPOS>BOND
     1    1    2 1 
     2    1   23 1 
     3    1   24 1 
     4    1   25 1 
     5    2    6 1 
     6    2    3 2 
     7    3    4 1 
     8    4    5 1 
     9    4   26 1 
    10    5    6 2 
    11    5   27 1 
    12    6    7 1 
    13    7    8 1 
    14    7   28 1 
    15    7   29 1 
    16    8    9 1 
    17    8   10 1 
    18    8   11 1 
    19   11   12 1 
    20   11   30 1 
    21   11   31 1 
    22   12   13 1 
    23   12   14 1 
    24   12   32 1 
    25   13   33 1 
    26   14   15 1 
    27   14   34 1 
    28   14   35 1 
    29   15   16 1 
    30   16   22 ar
    31   16   17 ar
    32   17   18 ar
    33   17   36 1 
    34   18   19 ar
    35   18   37 1 
    36   19   20 1 
    37   19   21 ar
    38   21   22 ar
    39   21   38 1 
    40   22   39 1 
##########                 Name:            E29957478
##########          Protonation:                   30
##########               SMILES:   C#CC[NH+]1CCN(CC1)Cc2ccc3c(c2)OCO3
##########            Long Name:   1-(1,3-benzodioxol-5-ylmethyl)-4-prop-2-ynyl-piperazin-4-ium
##########          FlexRecCode: 1
##########               Number:                  359
##########   Ligand Source File: /raidb/db2/rgc/leads-emolecules-300/leads-lt300-emolecules-1b-0000033.db2.gz
##########           GlobalRank: 1178
##########                 Rank:                    1
##########               Setnum:                   17
##########             Matchnum:                 7111
##########                Cloud:                    1
##########        Electrostatic:           -26.401033
##########        Van der Waals:           -23.741169
##########  Ligand Polar Desolv:             9.083018
########## Ligand Apolar Desolv:            -1.547755
##########      Internal Energy:             0.000000
##########      Receptor Energy: 0.0
########## Receptor Desolvation:             0.000000
########## Receptor Hydrophobic:             0.000000
##########         Total Energy: -42.61
##########        Ligand Charge:             1.000000
##########            Arbitrary:    +999.9990
##########     heavy atom count:   19
##########           pose count:    1
##########        Ligand Energy:             0.000000
# num electro vdwattr vdwrepu polsolv apolsol rdesolv rhydroe totalscore fullpol fullapo
#   1    0.60   -1.00    0.12   -1.08   -0.17    0.00    0.00      -1.53   -3.73   -0.57
#   2    3.94   -0.99    0.13   -1.62   -0.18    0.00    0.00       1.27   -5.72   -0.65
#   3   -1.78   -0.60    0.09    0.95   -0.09    0.00    0.00      -1.43    3.48   -0.33
#   4    9.97   -2.04    2.50   -3.86    0.15    0.00    0.00       6.72  -11.01    0.43
#   5  -19.07   -0.30    0.33    5.75    0.20    0.00    0.00     -13.09   15.79    0.55
#   6    0.07   -1.17    0.27    0.15   -0.17    0.00    0.00      -0.85    0.37   -0.42
#   7   -0.39   -1.09    0.26    0.21   -0.16    0.00    0.00      -1.17    0.50   -0.39
#   8    5.12   -1.01    0.06   -5.20    1.32    0.00    0.00       0.28  -12.62    3.21
#   9   -0.32   -1.13    0.17    0.91   -0.17    0.00    0.00      -0.53    2.06   -0.39
#  10   -0.02   -1.55    0.27   -0.29   -0.15    0.00    0.00      -1.74   -0.67   -0.34
#  11    0.06   -1.79    0.50   -0.43   -0.19    0.00    0.00      -1.85   -1.02   -0.46
#  12    0.04   -2.14    0.75   -0.54   -0.23    0.00    0.00      -2.12   -1.12   -0.47
#  13    0.10   -2.12    0.51   -0.20   -0.18    0.00    0.00      -1.89   -0.36   -0.33
#  14   -1.71   -3.25    1.35   -0.87    0.33    0.00    0.00      -4.15   -1.36    0.52
#  15    0.60   -2.12    0.57    0.89    0.01    0.00    0.00      -0.04    1.35    0.02
#  16   -1.37   -1.53    0.20   -1.22    0.32    0.00    0.00      -3.61   -2.00    0.52
#  17    0.13   -1.70    0.49   -0.12   -0.19    0.00    0.00      -1.40   -0.22   -0.33
#  18   -0.42   -1.63    0.38   -0.46   -0.16    0.00    0.00      -2.30   -1.05   -0.37
#  19   -0.16   -0.53    0.03   -0.05   -0.12    0.00    0.00      -0.83   -0.16   -0.37
#  20    0.03   -1.02    0.28    0.24   -0.15    0.00    0.00      -0.62    0.69   -0.42
#  21   -2.04   -0.16    0.01    0.68   -0.04    0.00    0.00      -1.55    4.31   -0.27
#  22   -1.73   -0.14    0.02    0.71   -0.03    0.00    0.00      -1.17    6.10   -0.28
#  23   -1.56   -0.15    0.01    0.70   -0.02    0.00    0.00      -1.03    4.30   -0.15
#  24   -3.87   -0.57    0.30    1.48   -0.09    0.00    0.00      -2.75    3.97   -0.24
#  25   -3.73   -0.43    0.13    1.77   -0.11    0.00    0.00      -2.37    4.71   -0.28
#  26   -0.89   -0.50    0.29    0.52   -0.06    0.00    0.00      -0.65    1.80   -0.22
#  27   -1.82   -0.57    0.26    0.93   -0.10    0.00    0.00      -1.31    2.50   -0.28
#  28   -0.21   -0.52    0.13    0.59   -0.11    0.00    0.00      -0.13    1.46   -0.28
#  29   -0.08   -0.60    0.35    0.91   -0.12    0.00    0.00       0.47    2.08   -0.27
#  30   -0.33   -0.39    0.12    0.78   -0.08    0.00    0.00       0.11    2.83   -0.28
#  31   -0.34   -0.49    0.16    0.41   -0.11    0.00    0.00      -0.36    1.04   -0.28
#  32    0.37   -0.86    0.53    0.88   -0.18    0.00    0.00       0.75    1.39   -0.28
#  33   -0.17   -1.07    0.91    0.79   -0.18    0.00    0.00       0.28    1.20   -0.28
#  34    1.24   -0.36    0.09    0.94   -0.10    0.00    0.00       1.82    2.72   -0.28
#  35   -0.58   -0.16    0.01    0.33   -0.03    0.00    0.00      -0.43    2.39   -0.21
#  36   -0.98   -0.15    0.01    0.27   -0.03    0.00    0.00      -0.88    1.70   -0.21
#  37   -2.96   -0.53    0.28    1.71   -0.10    0.00    0.00      -1.61    4.57   -0.28
#  38   -2.11   -0.29    0.06    1.51   -0.07    0.00    0.00      -0.89    6.10   -0.28
@<TRIPOS>MOLECULE
E29957478
   38    40     0     0     0
SMALL
USER_CHARGES


@<TRIPOS>ATOM
      1 C1         24.5356   23.1210   60.3258 C.1       1            -0.0558
      2 C2         24.7383   21.9713   60.4508 C.1       1            -0.2953
      3 C3         24.9926   20.5300   60.6073 C.3       1             0.1187
      4 N1         24.0026   19.7710   59.8316 N.4       1            -0.3845
      5 H1         24.0754   20.0217   58.8570 H         1             0.4310
      6 C4         22.6532   20.0865   60.3184 C.3       1            -0.0027
      7 C5         22.5479   19.7238   61.8013 C.3       1             0.0250
      8 N2         22.8268   18.2910   61.9732 N.3       1            -0.5323
      9 C6         22.6800   17.8910   63.3791 C.3       1             0.1026
     10 C7         22.4834   16.3990   63.4589 C.ar      1            -0.0898
     11 C8         23.5790   15.5648   63.5819 C.ar      1            -0.0807
     12 C9         23.4045   14.1949   63.6557 C.ar      1            -0.0990
     13 C10        22.1302   13.6567   63.6065 C.ar      1             0.0450
     14 O1         21.6732   12.3740   63.6570 O.3       1            -0.3043
     15 C11        20.3438   12.3931   63.1155 C.3       1             0.2128
     16 O2         19.9092   13.7174   63.4589 O.3       1            -0.3072
     17 C12        21.0260   14.4976   63.4825 C.ar      1             0.0344
     18 C13        21.2073   15.8682   63.4148 C.ar      1            -0.1010
     19 C14        24.1653   17.9555   61.4672 C.3       1             0.0156
     20 C15        24.2570   18.3329   59.9874 C.3       1            -0.0014
     21 H2         24.3542   24.1492   60.2142 H         1             0.2369
     22 H3         25.9940   20.2964   60.2459 H         1             0.1493
     23 H4         24.9141   20.2594   61.6603 H         1             0.1439
     24 H5         22.4606   21.1518   60.1905 H         1             0.1337
     25 H6         21.9193   19.5140   59.7513 H         1             0.1422
     26 H7         23.2723   20.3061   62.3705 H         1             0.0619
     27 H8         21.5421   19.9440   62.1591 H         1             0.1260
     28 H9         23.5773   18.1693   63.9317 H         1             0.0588
     29 H10        21.8157   18.3950   63.8117 H         1             0.1031
     30 H11        24.5736   15.9839   63.6201 H         1             0.1410
     31 H12        24.2621   13.5454   63.7513 H         1             0.1411
     32 H13        20.3609   12.2561   62.0343 H         1             0.1378
     33 H14        19.7169   11.6404   63.5936 H         1             0.0892
     34 H15        20.3528   16.5224   63.3235 H         1             0.1311
     35 H16        24.9165   18.5088   62.0310 H         1             0.0627
     36 H17        24.3396   16.8856   61.5813 H         1             0.1277
     37 H18        23.5149   17.7692   59.4220 H         1             0.1439
     38 H19        25.2538   18.0976   59.6140 H         1             0.1388
@<TRIPOS>BOND
     1    1    2 3 
     2    1   21 1 
     3    2    3 1 
     4    3    4 1 
     5    3   22 1 
     6    3   23 1 
     7    4    5 1 
     8    4   20 1 
     9    4    6 1 
    10    6    7 1 
    11    6   24 1 
    12    6   25 1 
    13    7    8 1 
    14    7   26 1 
    15    7   27 1 
    16    8    9 1 
    17    8   19 1 
    18    9   10 1 
    19    9   28 1 
    20    9   29 1 
    21   10   18 ar
    22   10   11 ar
    23   11   12 ar
    24   11   30 1 
    25   12   13 ar
    26   12   31 1 
    27   13   17 ar
    28   13   14 1 
    29   14   15 1 
    30   15   16 1 
    31   15   32 1 
    32   15   33 1 
    33   16   17 1 
    34   17   18 ar
    35   18   34 1 
    36   19   20 1 
    37   19   35 1 
    38   19   36 1 
    39   20   37 1 
    40   20   38 1 
##########                 Name:             E3544699
##########          Protonation:                  100
##########               SMILES:   CCc1ccc(cc1)Nc2c(n3ccccc3n2)[N+](=O)[O-]
##########            Long Name:   N-(4-ethylphenyl)-3-nitro-imidazo[1,2-a]pyridin-2-amine
##########          FlexRecCode: 1
##########               Number:                  504
##########   Ligand Source File: /raidb/db2/rgc/leads-emolecules-300/2-leads-lt300-emolecules-1-0000033.db2.gz
##########           GlobalRank: 1185
##########                 Rank:                    1
##########               Setnum:                    4
##########             Matchnum:                 5599
##########                Cloud:                    1
##########        Electrostatic:            -7.765529
##########        Van der Waals:           -32.764248
##########  Ligand Polar Desolv:             4.155713
########## Ligand Apolar Desolv:            -6.229703
##########      Internal Energy:             0.000000
##########      Receptor Energy: 0.0
########## Receptor Desolvation:             0.000000
########## Receptor Hydrophobic:             0.000000
##########         Total Energy: -42.6
##########        Ligand Charge:             0.000000
##########            Arbitrary:    +999.9990
##########     heavy atom count:   21
##########           pose count:    1
##########        Ligand Energy:             0.000000
# num electro vdwattr vdwrepu polsolv apolsol rdesolv rhydroe totalscore fullpol fullapo
#   1   -1.44   -1.42    0.31   -0.05   -0.12    0.00    0.00      -2.73   -0.07   -0.19
#   2   -1.26   -1.96    0.72   -0.02   -0.17    0.00    0.00      -2.70   -0.03   -0.26
#   3   -1.60   -2.62    0.80    0.14   -0.22    0.00    0.00      -3.50    0.22   -0.36
#   4   -1.32   -2.99    1.01    0.19   -0.27    0.00    0.00      -3.38    0.32   -0.46
#   5   -1.68   -2.82    1.38    0.48   -0.25    0.00    0.00      -2.89    0.81   -0.42
#   6    1.49   -2.38    0.92   -0.43   -0.43    0.00    0.00      -0.83   -0.70   -0.69
#   7   -3.99   -2.22    0.57    2.13    0.63    0.00    0.00      -2.87    3.58    1.06
#   8    2.83   -1.79    0.42   -1.47   -1.12    0.00    0.00      -1.14   -2.61   -2.00
#   9   -0.41   -1.86    0.40    0.51   -1.12    0.00    0.00      -2.48    0.90   -1.98
#  10   -0.54   -1.59    0.30    0.49    0.39    0.00    0.00      -0.94    1.07    0.87
#  11   -0.10   -1.45    0.26    0.00   -0.38    0.00    0.00      -1.67    0.00   -0.93
#  12    0.60   -1.13    0.13   -0.21   -0.16    0.00    0.00      -0.77   -0.59   -0.47
#  13    0.41   -1.08    0.08   -0.09   -0.18    0.00    0.00      -0.86   -0.22   -0.47
#  14    0.17   -1.51    0.26   -0.15   -0.21    0.00    0.00      -1.44   -0.34   -0.48
#  15    1.12   -1.73    0.42   -0.33   -0.95    0.00    0.00      -1.47   -0.75   -2.15
#  16   -5.04   -2.09    0.68    1.50    0.78    0.00    0.00      -4.18    3.10    1.61
#  17    0.23   -3.21    1.15   -0.26    0.26    0.00    0.00      -1.83   -0.42    0.43
#  18   -0.56   -4.98    3.78    0.64   -0.44    0.00    0.00      -1.55    0.97   -0.66
#  19   -0.27   -4.11    3.36    0.58   -0.38    0.00    0.00      -0.83    1.01   -0.66
#  20   -1.09   -2.67    0.56    0.33   -0.30    0.00    0.00      -3.17    0.51   -0.46
#  21   -1.01   -2.86    1.00    0.12   -0.30    0.00    0.00      -3.05    0.18   -0.46
#  22    0.49   -0.55    0.25    0.00   -0.14    0.00    0.00       0.05    0.00   -0.28
#  23    0.54   -0.48    0.22    0.00   -0.12    0.00    0.00       0.15   -0.01   -0.28
#  24    0.50   -0.44    0.10    0.06   -0.13    0.00    0.00       0.08    0.12   -0.28
#  25    1.09   -1.14    1.28    0.07   -0.16    0.00    0.00       1.15    0.12   -0.28
#  26    1.23   -0.77    0.48    0.05   -0.17    0.00    0.00       0.82    0.09   -0.28
#  27    1.04   -1.03    1.11   -0.11   -0.16    0.00    0.00       0.85   -0.18   -0.28
#  28    1.57   -0.70    0.42   -0.40   -0.09    0.00    0.00       0.79   -0.82   -0.19
#  29    1.20   -0.05    0.00   -0.89    0.29    0.00    0.00       0.56   -1.82    0.60
#  30   -0.42   -0.28    0.03    0.09   -0.09    0.00    0.00      -0.66    0.31   -0.28
#  31   -0.95   -0.17    0.01    0.37   -0.04    0.00    0.00      -0.78    2.43   -0.28
#  32   -1.54   -0.17    0.01    0.49   -0.05    0.00    0.00      -1.27    2.67   -0.28
#  33   -0.56   -0.45    0.20    0.36   -0.10    0.00    0.00      -0.55    1.02   -0.28
#  34    0.35   -0.71    0.17   -0.10   -0.17    0.00    0.00      -0.46   -0.16   -0.28
#  35    1.15   -0.84    0.70    0.06   -0.16    0.00    0.00       0.92    0.11   -0.28
@<TRIPOS>MOLECULE
E3544699
   35    37     0     0     0
SMALL
USER_CHARGES


@<TRIPOS>ATOM
      1 C1         12.9637   15.6441   65.2323 C.3       1            -0.1476
      2 C2         14.0930   16.6625   65.4016 C.3       1            -0.0833
      3 C3         15.4212   15.9728   65.2250 C.ar      1            -0.1031
      4 C4         15.9954   15.8910   63.9703 C.ar      1            -0.0905
      5 C5         17.2129   15.2605   63.8057 C.ar      1            -0.1304
      6 C6         17.8613   14.7081   64.9033 C.ar      1             0.1583
      7 N1         19.0932   14.0700   64.7406 N.pl3     1            -0.6446
      8 C7         20.1877   14.7799   64.2311 C.2       1             0.4173
      9 C8         21.4320   14.2767   64.0200 C.2       1            -0.1053
     10 N2         22.1979   15.2957   63.5160 N.pl3     1            -0.3313
     11 C9         23.5040   15.3608   63.1273 C.2       1             0.0608
     12 C10        24.0245   16.5141   62.6555 C.2       1            -0.1298
     13 C11        23.2250   17.6639   62.5587 C.2       1            -0.0669
     14 C12        21.9199   17.6118   62.9429 C.2       1            -0.0920
     15 C13        21.3927   16.4014   63.4331 C.2       1             0.3028
     16 N3         20.1832   16.0663   63.8649 N.2       1            -0.5010
     17 N4         21.8847   12.8649   64.2898 N.pl3     1             0.0496
     18 O1         21.1064   12.0560   64.7388 O.2       1            -0.1156
     19 O2         23.0262   12.5413   64.0573 O.3       1            -0.1126
     20 C14        17.2820   14.7926   66.1632 C.ar      1            -0.1510
     21 C15        16.0668   15.4291   66.3215 C.ar      1            -0.0906
     22 H1         12.0029   16.1426   65.3595 H         1             0.0551
     23 H2         13.0164   15.2054   64.2360 H         1             0.0556
     24 H3         13.0676   14.8587   65.9811 H         1             0.0576
     25 H4         13.9895   17.4478   64.6530 H         1             0.0709
     26 H5         14.0404   17.1010   66.3981 H         1             0.0712
     27 H6         15.4906   16.3203   63.1175 H         1             0.1250
     28 H7         17.6602   15.1965   62.8248 H         1             0.1437
     29 H8         19.1906   13.1351   64.9803 H         1             0.4209
     30 H9         24.1275   14.4818   63.1979 H         1             0.1655
     31 H10        25.0603   16.5522   62.3519 H         1             0.1650
     32 H11        23.6431   18.5855   62.1814 H         1             0.1577
     33 H12        21.2952   18.4900   62.8724 H         1             0.1677
     34 H13        17.7833   14.3642   67.0186 H         1             0.1244
     35 H14        15.6179   15.4989   67.3013 H         1             0.1263
@<TRIPOS>BOND
     1    1    2 1 
     2    1   22 1 
     3    1   23 1 
     4    1   24 1 
     5    2    3 1 
     6    2   25 1 
     7    2   26 1 
     8    3   21 ar
     9    3    4 ar
    10    4    5 ar
    11    4   27 1 
    12    5    6 ar
    13    5   28 1 
    14    6    7 1 
    15    6   20 ar
    16    7    8 1 
    17    7   29 1 
    18    8   16 1 
    19    8    9 2 
    20    9   10 1 
    21    9   17 1 
    22   10   15 1 
    23   10   11 1 
    24   11   12 2 
    25   11   30 1 
    26   12   13 1 
    27   12   31 1 
    28   13   14 2 
    29   13   32 1 
    30   14   15 1 
    31   14   33 1 
    32   15   16 2 
    33   17   18 2 
    34   17   19 1 
    35   20   21 ar
    36   20   34 1 
    37   21   35 1 
##########                 Name:            E32087517
##########          Protonation:                   28
##########               SMILES:   c1ccc(cc1)C[NH+]2CCC[C@@H](C2)C(=O)NCc3ccn[nH]3
##########            Long Name:   (3S)-1-benzyl-N-(1H-pyrazol-5-ylmethyl)piperidin-1-ium-3-carboxamide
##########          FlexRecCode: 1
##########               Number:                  400
##########   Ligand Source File: /raidb/db2/rgc/leads-emolecules-300/leads-emolecules-3-bm-0000001.db2.gz
##########           GlobalRank: 1250
##########                 Rank:                    1
##########               Setnum:                  226
##########             Matchnum:                 1921
##########                Cloud:                    1
##########        Electrostatic:           -22.200888
##########        Van der Waals:           -24.101002
##########  Ligand Polar Desolv:             5.474877
########## Ligand Apolar Desolv:            -1.663854
##########      Internal Energy:             0.000000
##########      Receptor Energy: 0.0
########## Receptor Desolvation:             0.000000
########## Receptor Hydrophobic:             0.000000
##########         Total Energy: -42.49
##########        Ligand Charge:             1.000000
##########            Arbitrary:    +999.9990
##########     heavy atom count:   22
##########           pose count:    1
##########        Ligand Energy:             0.000000
# num electro vdwattr vdwrepu polsolv apolsol rdesolv rhydroe totalscore fullpol fullapo
#   1    1.09   -2.25    0.47   -5.03    0.15    0.00    0.00      -5.57  -10.92    0.33
#   2   -2.44   -1.22    0.12    4.19   -0.19    0.00    0.00       0.47   10.76   -0.48
#   3    2.24   -1.22    0.18   -5.14    0.86    0.00    0.00      -3.08  -13.59    2.28
#   4    0.09   -1.43    0.56    1.40   -0.21    0.00    0.00       0.42    3.10   -0.47
#   5    0.08   -1.90    0.49    0.59   -0.37    0.00    0.00      -1.11    1.13   -0.71
#   6   -1.08   -1.69    0.30   -1.68   -0.30    0.00    0.00      -4.45   -2.90   -0.51
#   7    0.18   -2.13    0.39    0.07   -0.65    0.00    0.00      -2.14    0.12   -1.05
#   8   -1.02   -3.57    1.30   -1.48    0.85    0.00    0.00      -3.92   -2.26    1.30
#   9   -0.75   -3.42    1.63   -2.66    0.41    0.00    0.00      -4.79   -4.57    0.71
#  10    1.41   -0.56    0.03   -1.06   -0.07    0.00    0.00      -0.25   -2.98   -0.20
#  11    1.87   -0.95    0.20   -1.31   -0.09    0.00    0.00      -0.28   -3.22   -0.23
#  12    3.93   -1.75    0.77   -1.68   -0.11    0.00    0.00       1.16   -3.75   -0.24
#  13    0.42   -1.56    0.70   -0.13   -0.15    0.00    0.00      -0.71   -0.31   -0.35
#  14    7.14   -1.06    0.19   -3.69    0.09    0.00    0.00       2.67  -10.62    0.26
#  15   -8.17   -0.03    0.00    2.74    0.10    0.00    0.00      -5.36   10.36    0.36
#  16   -0.73   -0.66    0.16    0.44   -0.10    0.00    0.00      -0.89    1.62   -0.36
#  17    1.04   -0.61    0.04   -0.56   -0.07    0.00    0.00      -0.17   -2.57   -0.33
#  18    0.32   -0.45    0.03   -0.27   -0.06    0.00    0.00      -0.43   -1.71   -0.36
#  19   -0.17   -0.53    0.07   -0.37   -0.07    0.00    0.00      -1.07   -2.33   -0.47
#  20   -0.17   -0.92    0.22   -0.37   -0.09    0.00    0.00      -1.33   -1.84   -0.47
#  21   -0.27   -1.62    0.95   -0.54   -0.12    0.00    0.00      -1.60   -2.17   -0.47
#  22    0.19   -1.23    0.29   -0.47   -0.12    0.00    0.00      -1.34   -1.89   -0.46
#  23   -0.18   -0.94    0.15    0.16   -0.12    0.00    0.00      -0.93    0.44   -0.33
#  24   -1.98   -0.02    0.00    1.93    0.12    0.00    0.00       0.05    8.49    0.53
#  25   -0.03   -0.51    0.25    0.44   -0.10    0.00    0.00       0.06    1.23   -0.28
#  26    0.33   -0.88    0.91    0.70   -0.12    0.00    0.00       0.95    1.69   -0.28
#  27    1.11   -0.37    0.12    0.82   -0.09    0.00    0.00       1.58    2.43   -0.28
#  28    0.77   -0.56    0.31    0.97   -0.14    0.00    0.00       1.35    1.89   -0.28
#  29   -1.77   -0.12    0.02    2.89    0.21    0.00    0.00       1.23    5.44    0.40
#  30   -1.55   -0.13    0.00    0.57   -0.03    0.00    0.00      -1.14    4.80   -0.28
#  31   -1.23   -0.68    0.76    1.33   -0.09    0.00    0.00       0.10    3.92   -0.28
#  32   -1.14   -0.24    0.02    0.50   -0.08    0.00    0.00      -0.93    1.70   -0.26
#  33   -3.56   -0.95    1.47    0.97   -0.11    0.00    0.00      -2.18    2.51   -0.28
#  34   -2.66   -0.96    0.79    0.47   -0.13    0.00    0.00      -2.48    0.93   -0.25
#  35   -4.31   -1.22    2.16    2.63   -0.12    0.00    0.00      -0.85    6.21   -0.28
#  36   -3.38   -0.42    0.11    1.08   -0.08    0.00    0.00      -2.69    2.87   -0.20
#  37   -2.35   -0.22    0.05    0.76   -0.05    0.00    0.00      -1.80    4.56   -0.27
#  38   -2.47   -0.37    0.30    1.26   -0.06    0.00    0.00      -1.33    6.34   -0.28
#  39   -0.54   -0.07    0.00    0.30   -0.02    0.00    0.00      -0.32    4.81   -0.27
#  40    0.21   -0.06    0.00    0.13   -0.02    0.00    0.00       0.26    1.80   -0.28
#  41    0.29   -0.13    0.01    0.11   -0.04    0.00    0.00       0.25    0.87   -0.28
#  42    0.38   -0.44    0.30    0.24   -0.06    0.00    0.00       0.41    1.07   -0.28
#  43   -0.54   -0.41    0.16    0.67   -0.07    0.00    0.00      -0.18    2.79   -0.28
#  44   -1.71   -0.46    0.15    1.43   -0.09    0.00    0.00      -0.69    4.21   -0.28
#  45   -1.11   -0.42    0.11    2.10   -0.08    0.00    0.00       0.59    7.15   -0.28
@<TRIPOS>MOLECULE
E32087517
   45    47     0     0     0
SMALL
USER_CHARGES


@<TRIPOS>ATOM
      1 O1         23.2260   17.7255   63.9844 O.2       1            -0.5510
      2 C1         23.4747   17.2646   62.8904 C.2       1             0.5172
      3 N1         23.5615   15.9299   62.7254 N.am      1            -0.7074
      4 C2         23.3555   15.0357   63.8675 C.3       1             0.1823
      5 C3         22.1924   14.1200   63.5853 C.2       1             0.0455
      6 C4         20.8942   14.3659   63.8777 C.2       1            -0.2371
      7 C5         20.1415   13.2667   63.4516 C.2       1             0.0504
      8 N2         20.9583   12.3922   62.9225 N.2       1            -0.2702
      9 N3         22.2581   12.9105   62.9903 N.pl3     1            -0.4665
     10 C6         23.6803   18.1843   61.7144 C.3       1            -0.1346
     11 C7         22.6390   17.8759   60.6353 C.3       1            -0.1291
     12 C8         22.8259   18.8567   59.4745 C.3       1            -0.1481
     13 C9         22.6924   20.2871   60.0011 C.3       1            -0.0154
     14 N4         23.7160   20.5369   61.0233 N.4       1            -0.3828
     15 H1         23.6499   21.4939   61.3359 H         1             0.4305
     16 C10        25.0469   20.3039   60.4466 C.3       1             0.0456
     17 C11        26.1000   20.5596   61.4939 C.ar      1            -0.1598
     18 C12        27.2976   19.8705   61.4523 C.ar      1            -0.0993
     19 C13        28.2636   20.1050   62.4128 C.ar      1            -0.1150
     20 C14        28.0322   21.0289   63.4147 C.ar      1            -0.0852
     21 C15        26.8349   21.7187   63.4558 C.ar      1            -0.1131
     22 C16        25.8706   21.4874   62.4927 C.ar      1            -0.0906
     23 C17        23.5183   19.6370   62.1664 C.3       1             0.0148
     24 H2         23.7605   15.5612   61.8506 H         1             0.4121
     25 H3         24.2545   14.4413   64.0304 H         1             0.0910
     26 H4         23.1445   15.6270   64.7585 H         1             0.1043
     27 H5         20.5077   15.2539   64.3557 H         1             0.1527
     28 H6         19.0709   13.1582   63.5440 H         1             0.1915
     29 H7         23.0633   12.4758   62.6686 H         1             0.4400
     30 H8         24.6813   18.0382   61.3082 H         1             0.1465
     31 H9         22.7749   16.8556   60.2770 H         1             0.1011
     32 H10        21.6377   17.9882   61.0508 H         1             0.0981
     33 H11        23.8150   18.7199   59.0375 H         1             0.1188
     34 H12        22.0636   18.6744   58.7170 H         1             0.0843
     35 H13        22.8229   20.9900   59.1782 H         1             0.1300
     36 H14        21.7030   20.4215   60.4385 H         1             0.1323
     37 H15        25.1185   19.2718   60.1036 H         1             0.1362
     38 H16        25.2009   20.9783   59.6043 H         1             0.1341
     39 H17        27.4784   19.1486   60.6695 H         1             0.1306
     40 H18        29.1990   19.5661   62.3808 H         1             0.1358
     41 H19        28.7867   21.2116   64.1656 H         1             0.1356
     42 H20        26.6540   22.4403   64.2387 H         1             0.1360
     43 H21        24.9366   22.0288   62.5226 H         1             0.1319
     44 H22        22.5170   19.7809   62.5719 H         1             0.1365
     45 H23        24.2565   19.8615   62.9363 H         1             0.1395
@<TRIPOS>BOND
     1    1    2 2 
     2    2    3 am
     3    2   10 1 
     4    3    4 1 
     5    3   24 1 
     6    4    5 1 
     7    4   25 1 
     8    4   26 1 
     9    5    9 1 
    10    5    6 2 
    11    6    7 1 
    12    6   27 1 
    13    7    8 2 
    14    7   28 1 
    15    8    9 1 
    16    9   29 1 
    17   10   23 1 
    18   10   11 1 
    19   10   30 1 
    20   11   12 1 
    21   11   31 1 
    22   11   32 1 
    23   12   13 1 
    24   12   33 1 
    25   12   34 1 
    26   13   14 1 
    27   13   35 1 
    28   13   36 1 
    29   14   15 1 
    30   14   16 1 
    31   14   23 1 
    32   16   17 1 
    33   16   37 1 
    34   16   38 1 
    35   17   22 ar
    36   17   18 ar
    37   18   19 ar
    38   18   39 1 
    39   19   20 ar
    40   19   40 1 
    41   20   21 ar
    42   20   41 1 
    43   21   22 ar
    44   21   42 1 
    45   22   43 1 
    46   23   44 1 
    47   23   45 1 
##########                 Name:             E5833937
##########          Protonation:                   15
##########               SMILES:   [H]/N=C(/Nc1ccc(c(c1)C)Br)\NC(=[NH2+])N
##########            Long Name:   [amino-[[N-(4-bromo-3-methyl-phenyl)carbamimidoyl]amino]methylene]ammonium
##########          FlexRecCode: 1
##########               Number:                  687
##########   Ligand Source File: /raidb/db2/rgc/leads-emolecules-300/leads-emolecules-3-cx-0000003.db2.gz
##########           GlobalRank: 1274
##########                 Rank:                    1
##########               Setnum:                   27
##########             Matchnum:                 5404
##########                Cloud:                    1
##########        Electrostatic:           -24.692287
##########        Van der Waals:           -21.206844
##########  Ligand Polar Desolv:             6.433362
########## Ligand Apolar Desolv:            -2.991849
##########      Internal Energy:             0.000000
##########      Receptor Energy: 0.0
########## Receptor Desolvation:             0.000000
########## Receptor Hydrophobic:             0.000000
##########         Total Energy: -42.46
##########        Ligand Charge:             1.000000
##########            Arbitrary:    +999.9990
##########     heavy atom count:   15
##########           pose count:    1
##########        Ligand Energy:             0.000000
# num electro vdwattr vdwrepu polsolv apolsol rdesolv rhydroe totalscore fullpol fullapo
#   1   -1.54   -1.22    0.24   -0.49   -0.10    0.00    0.00      -3.11   -0.95   -0.20
#   2   -0.15   -1.63    0.41   -0.30   -0.19    0.00    0.00      -1.86   -0.65   -0.41
#   3   -0.11   -1.51    0.30   -0.68   -0.17    0.00    0.00      -2.17   -1.56   -0.39
#   4   -0.56   -1.17    0.13    1.33   -0.27    0.00    0.00      -0.55    3.33   -0.68
#   5    5.32   -0.99    0.05   -5.27    0.31    0.00    0.00      -0.58  -14.26    0.84
#   6   -5.87   -1.74    0.31    5.74   -1.88    0.00    0.00      -3.44   14.14   -4.64
#   7    3.93   -4.20    2.04   -7.14    0.53    0.00    0.00      -4.85  -14.32    1.07
#   8   10.93   -2.00    1.00   -7.10    0.41    0.00    0.00       3.24  -18.68    1.09
#   9  -16.43   -1.40    0.28    8.65   -1.78    0.00    0.00     -10.69   23.62   -4.86
#  10   20.26   -2.68    1.91   -9.09    0.26    0.00    0.00      10.65  -25.18    0.72
#  11   17.32   -1.71    0.47   -9.47    0.36    0.00    0.00       6.96  -24.41    0.92
#  12   -7.13   -0.02    0.00    3.57    0.14    0.00    0.00      -3.44   15.59    0.60
#  13  -13.84   -0.07    0.01    6.59    0.24    0.00    0.00      -7.07   16.18    0.59
#  14    0.35   -1.34    0.22   -0.81   -0.18    0.00    0.00      -1.76   -2.09   -0.46
#  15    0.00   -1.77    0.47   -0.46   -0.22    0.00    0.00      -1.98   -0.99   -0.46
#  16   -0.30   -1.73    0.53   -0.65   -0.16    0.00    0.00      -2.31   -1.21   -0.30
#  17   -0.12   -6.42    2.39   -0.40   -0.65    0.00    0.00      -5.19   -0.63   -1.03
#  18    1.99   -0.94    2.23    0.18   -0.12    0.00    0.00       3.34    0.42   -0.28
#  19    0.61   -0.43    0.11    0.37   -0.12    0.00    0.00       0.54    0.90   -0.28
#  20    0.98   -0.33    0.04    0.08   -0.08    0.00    0.00       0.70    0.23   -0.22
#  21    0.15   -0.41    0.23    0.71   -0.06    0.00    0.00       0.61    2.24   -0.19
#  22   -3.82   -0.01    0.00    1.49    0.04    0.00    0.00      -2.30   11.97    0.36
#  23   -2.72   -0.17    0.02    3.91    0.33    0.00    0.00       1.37    7.03    0.59
#  24   -8.58   -0.09    0.02    4.31    0.18    0.00    0.00      -4.17   14.20    0.59
#  25   -9.07   -0.02    0.00    3.71    0.12    0.00    0.00      -5.26   13.20    0.43
#  26  -15.62   -0.17    0.08    6.27    0.23    0.00    0.00      -9.21   16.12    0.59
#  27   -0.49   -0.21    0.02    0.84   -0.06    0.00    0.00       0.10    3.88   -0.28
#  28   -0.17   -0.42    0.09    0.57   -0.11    0.00    0.00      -0.03    1.42   -0.28
@<TRIPOS>MOLECULE
E5833937
   28    28     0     0     0
SMALL
USER_CHARGES


@<TRIPOS>ATOM
      1 C1         19.3202   15.7788   63.3877 C.3       1            -0.1303
      2 C2         20.8196   15.7490   63.2389 C.ar      1            -0.0301
      3 C3         21.4979   16.8901   62.8571 C.ar      1            -0.1123
      4 C4         22.8795   16.8621   62.7207 C.ar      1             0.1612
      5 N1         23.5692   18.0165   62.3346 N.pl3     1            -0.6645
      6 C5         23.0760   19.2568   62.6689 C.2       1             0.6008
      7 N2         22.3771   19.4078   63.7573 N.2       1            -0.6921
      8 N3         23.3222   20.3412   61.8505 N.pl3     1            -0.6703
      9 C6         23.4790   20.1594   60.4988 C.cat     1             0.7483
     10 N4         23.7163   21.2049   59.7096 N.pl3     1            -0.7952
     11 N5         23.3936   18.9378   59.9772 N.pl3     1            -0.7653
     12 H1         23.2207   18.1760   60.5522 H         1             0.4470
     13 H2         23.5045   18.8093   59.0221 H         1             0.4464
     14 C7         23.5755   15.6859   62.9687 C.ar      1            -0.1468
     15 C8         22.8923   14.5481   63.3501 C.ar      1            -0.0612
     16 C9         21.5160   14.5804   63.4904 C.ar      1            -0.1038
     17 Br1        20.5846   13.0223   64.0205 Br        1            -0.0319
     18 H3         18.9512   16.7763   63.1494 H         1             0.0846
     19 H4         18.8732   15.0539   62.7075 H         1             0.0745
     20 H5         19.0519   15.5276   64.4139 H         1             0.0816
     21 H6         20.9542   17.8031   62.6645 H         1             0.1588
     22 H7         24.3949   17.9425   61.8311 H         1             0.4119
     23 H8         21.9686   20.2647   63.9563 H         1             0.3662
     24 H9         23.3844   21.2314   62.2307 H         1             0.4525
     25 H10        23.7786   22.0951   60.0898 H         1             0.4473
     26 H11        23.8271   21.0765   58.7545 H         1             0.4465
     27 H12        24.6500   15.6612   62.8630 H         1             0.1335
     28 H13        23.4330   13.6334   63.5432 H         1             0.1426
@<TRIPOS>BOND
     1    1    2 1 
     2    1   18 1 
     3    1   19 1 
     4    1   20 1 
     5    2   16 ar
     6    2    3 ar
     7    3    4 ar
     8    3   21 1 
     9    4    5 1 
    10    4   14 ar
    11    5    6 1 
    12    5   22 1 
    13    6    7 2 
    14    6    8 1 
    15    7   23 1 
    16    8    9 1 
    17    8   24 1 
    18    9   10 1 
    19    9   11 2 
    20   10   25 1 
    21   10   26 1 
    22   11   12 1 
    23   11   13 1 
    24   14   15 ar
    25   14   27 1 
    26   15   16 ar
    27   15   28 1 
    28   16   17 1 
##########                 Name:            E44337562
##########          Protonation:                   94
##########               SMILES:   COCC[NH+]1CCC2(C1)CN(C2)C(=O)c3ccncc3
##########            Long Name:   [7-(2-methoxyethyl)-2-aza-7-azoniaspiro[3.4]octan-2-yl]-(4-pyridyl)methanone
##########          FlexRecCode: 1
##########               Number:                  543
##########   Ligand Source File: /raidb/db2/rgc/leads-emolecules-300/leads-lt300-emolecules-1h-0000071.db2.gz
##########           GlobalRank: 1301
##########                 Rank:                    1
##########               Setnum:                   72
##########             Matchnum:                 1143
##########                Cloud:                    1
##########        Electrostatic:           -34.901058
##########        Van der Waals:           -18.931187
##########  Ligand Polar Desolv:            13.342989
########## Ligand Apolar Desolv:            -1.940667
##########      Internal Energy:             0.000000
##########      Receptor Energy: 0.0
########## Receptor Desolvation:             0.000000
########## Receptor Hydrophobic:             0.000000
##########         Total Energy: -42.43
##########        Ligand Charge:             1.000000
##########            Arbitrary:    +999.9990
##########     heavy atom count:   20
##########           pose count:    1
##########        Ligand Energy:             0.000000
# num electro vdwattr vdwrepu polsolv apolsol rdesolv rhydroe totalscore fullpol fullapo
#   1   -0.06   -1.15    0.42    0.14    0.01    0.00    0.00      -0.64    0.53    0.03
#   2    3.02   -0.53    0.02   -2.08    0.23    0.00    0.00       0.66   -9.02    0.99
#   3   -0.37   -0.61    0.07    0.03   -0.03    0.00    0.00      -0.90    0.10   -0.12
#   4    0.03   -1.19    0.33    0.24   -0.13    0.00    0.00      -0.73    0.67   -0.36
#   5    9.53   -1.49    0.67   -4.58    0.17    0.00    0.00       4.29  -12.14    0.44
#   6  -13.55   -0.07    0.01    5.29    0.17    0.00    0.00      -8.15   17.41    0.56
#   7   -0.15   -1.76    0.90    0.37   -0.17    0.00    0.00      -0.82    0.77   -0.36
#   8    2.09   -1.21    0.28   -1.60   -0.12    0.00    0.00      -0.57   -3.38   -0.26
#   9    1.35   -0.66    0.04   -0.74   -0.04    0.00    0.00      -0.05   -1.80   -0.09
#  10   -0.66   -1.22    0.29    0.80   -0.27    0.00    0.00      -1.04    1.82   -0.60
#  11   -0.12   -1.45    0.21   -4.50    1.09    0.00    0.00      -4.76  -10.28    2.50
#  12   -0.58   -0.76    0.13    0.79   -0.16    0.00    0.00      -0.57    2.12   -0.44
#  13    3.71   -1.91    0.60    1.98   -0.31    0.00    0.00       4.06    4.32   -0.68
#  14   -7.54   -3.23    2.59   -0.52    0.20    0.00    0.00      -8.49   -1.04    0.41
#  15   -0.36   -1.66    0.38   -0.51   -0.22    0.00    0.00      -2.38   -0.94   -0.41
#  16   -0.74   -1.79    0.27   -0.87   -0.26    0.00    0.00      -3.40   -1.43   -0.43
#  17    0.28   -3.03    0.77    0.53   -0.64    0.00    0.00      -2.10    0.81   -0.98
#  18   -3.35   -5.54    5.21   -1.90    1.34    0.00    0.00      -4.25   -2.92    2.05
#  19    0.22   -3.46    1.68    0.13   -0.56    0.00    0.00      -1.99    0.23   -0.98
#  20   -0.16   -1.90    0.49   -0.42   -0.23    0.00    0.00      -2.21   -0.84   -0.45
#  21   -0.06   -0.58    0.03    0.33   -0.16    0.00    0.00      -0.43    0.95   -0.46
#  22    0.03   -0.50    0.41    0.09   -0.07    0.00    0.00      -0.04    0.37   -0.28
#  23    0.11   -0.23    0.04    0.23   -0.05    0.00    0.00       0.09    1.19   -0.28
#  24   -0.64   -0.88    0.84    0.35   -0.09    0.00    0.00      -0.42    1.07   -0.28
#  25   -0.63   -0.14    0.01    0.43   -0.04    0.00    0.00      -0.37    3.03   -0.28
#  26   -1.32   -0.29    0.14    0.30   -0.05    0.00    0.00      -1.22    1.52   -0.28
#  27   -3.32   -0.70    1.15    2.33   -0.09    0.00    0.00      -0.62    7.44   -0.28
#  28   -4.04   -0.91    1.08    1.50   -0.10    0.00    0.00      -2.47    3.92   -0.27
#  29   -3.67   -0.50    0.22    1.05   -0.09    0.00    0.00      -2.99    2.73   -0.23
#  30   -4.92   -1.44    2.78    2.08   -0.13    0.00    0.00      -1.63    4.05   -0.26
#  31   -1.62   -0.37    0.06    0.29   -0.11    0.00    0.00      -1.75    0.72   -0.28
#  32   -1.89   -0.81    1.11    1.64   -0.12    0.00    0.00      -0.08    3.77   -0.28
#  33   -0.51   -0.51    0.11    1.28   -0.12    0.00    0.00       0.25    2.95   -0.28
#  34   -0.68   -0.76    1.25    0.32   -0.10    0.00    0.00       0.03    0.88   -0.28
#  35   -0.58   -0.49    0.66    0.81   -0.06    0.00    0.00       0.33    3.18   -0.22
#  36   -0.50   -0.21    0.02    0.95   -0.06    0.00    0.00       0.20    4.54   -0.28
#  37    0.96   -0.35    0.06    1.87   -0.06    0.00    0.00       2.49    4.73   -0.14
#  38   -0.33   -1.04    0.97    2.06   -0.18    0.00    0.00       1.48    3.19   -0.28
#  39   -0.52   -1.17    1.86    0.47   -0.14    0.00    0.00       0.51    0.95   -0.28
#  40   -0.03   -0.30    0.04    0.07   -0.08    0.00    0.00      -0.30    0.23   -0.27
#  41   -1.71   -0.13    0.00    1.00   -0.03    0.00    0.00      -0.87    8.09   -0.28
#  42   -1.63   -0.23    0.02    1.30   -0.05    0.00    0.00      -0.58    6.29   -0.24
@<TRIPOS>MOLECULE
E44337562
   42    44     0     0     0
SMALL
USER_CHARGES


@<TRIPOS>ATOM
      1 C1         25.5528   21.5961   62.6956 C.3       1             0.0276
      2 O1         25.7210   21.1242   61.3573 O.3       1            -0.3999
      3 C2         24.9493   21.8369   60.3884 C.3       1             0.0287
      4 C3         23.5069   21.3267   60.4099 C.3       1            -0.0013
      5 N1         23.4900   19.8928   60.0909 N.4       1            -0.3892
      6 H1         24.1549   19.6994   59.3570 H         1             0.4260
      7 C4         22.1339   19.4964   59.6513 C.3       1             0.0057
      8 C5         21.9288   18.0685   60.2225 C.3       1            -0.1216
      9 C6         22.6676   18.1678   61.5684 C.3       1            -0.1232
     10 C7         21.8019   18.4945   62.7815 C.3       1             0.1237
     11 N2         21.7461   17.0326   62.9949 N.am      1            -0.6429
     12 C8         23.0049   16.8418   62.2433 C.3       1             0.1127
     13 C9         20.8891   16.2040   63.6238 C.2       1             0.5884
     14 O2         19.9036   16.6533   64.1750 O.2       1            -0.5085
     15 C10        21.1483   14.7455   63.6428 C.ar      1            -0.0902
     16 C11        20.0936   13.8288   63.6899 C.ar      1            -0.1609
     17 C12        20.3809   12.4776   63.7056 C.ar      1             0.1004
     18 N3         21.6275   12.0503   63.6773 N.ar      1            -0.4623
     19 C13        22.6506   12.8802   63.6328 C.ar      1             0.1070
     20 C14        22.4543   14.2474   63.6082 C.ar      1            -0.1133
     21 C15        23.8377   19.1111   61.2959 C.3       1             0.0040
     22 H2         26.1714   21.0040   63.3700 H         1             0.0551
     23 H3         25.8524   22.6425   62.7523 H         1             0.0517
     24 H4         24.5063   21.5014   62.9854 H         1             0.1000
     25 H5         24.9617   22.9008   60.6251 H         1             0.0744
     26 H6         25.3755   21.6800   59.3976 H         1             0.0983
     27 H7         23.0808   21.4835   61.4008 H         1             0.1445
     28 H8         22.9182   21.8701   59.6710 H         1             0.1382
     29 H9         21.3886   20.1786   60.0600 H         1             0.1397
     30 H10        22.0779   19.4807   58.5629 H         1             0.1386
     31 H11        20.8703   17.8556   60.3723 H         1             0.1185
     32 H12        22.3892   17.3196   59.5780 H         1             0.1065
     33 H13        22.3301   19.0347   63.5672 H         1             0.1000
     34 H14        20.8395   18.9400   62.5290 H         1             0.0976
     35 H15        22.9892   15.9868   61.5673 H         1             0.1079
     36 H16        23.8993   16.8790   62.8652 H         1             0.1069
     37 H17        19.0699   14.1719   63.7139 H         1             0.1445
     38 H18        19.5730   11.7618   63.7420 H         1             0.1647
     39 H19        23.6558   12.4858   63.6112 H         1             0.1700
     40 H20        23.2971   14.9215   63.5670 H         1             0.1512
     41 H21        24.7449   18.5341   61.1168 H         1             0.1420
     42 H22        23.9822   19.7794   62.1447 H         1             0.1390
@<TRIPOS>BOND
     1    1    2 1 
     2    1   22 1 
     3    1   23 1 
     4    1   24 1 
     5    2    3 1 
     6    3    4 1 
     7    3   25 1 
     8    3   26 1 
     9    4    5 1 
    10    4   27 1 
    11    4   28 1 
    12    5    6 1 
    13    5   21 1 
    14    5    7 1 
    15    7    8 1 
    16    7   29 1 
    17    7   30 1 
    18    8    9 1 
    19    8   31 1 
    20    8   32 1 
    21    9   12 1 
    22    9   10 1 
    23    9   21 1 
    24   10   11 1 
    25   10   33 1 
    26   10   34 1 
    27   11   12 1 
    28   11   13 am
    29   12   35 1 
    30   12   36 1 
    31   13   14 2 
    32   13   15 1 
    33   15   20 ar
    34   15   16 ar
    35   16   17 ar
    36   16   37 1 
    37   17   18 ar
    38   17   38 1 
    39   18   19 ar
    40   19   20 ar
    41   19   39 1 
    42   20   40 1 
    43   21   41 1 
    44   21   42 1 
##########                 Name:            E43115344
##########          Protonation:                   92
##########               SMILES:   CC(C)C[C@@H](C(=O)NCc1ccc2c(c1)nsn2)[NH3+]
##########            Long Name:   [(1S)-1-(2,1,3-benzothiadiazol-5-ylmethylcarbamoyl)-3-methyl-butyl]ammonium
##########          FlexRecCode: 1
##########               Number:                  595
##########   Ligand Source File: /raidb/db2/rgc/leads-emolecules-300/leads-lt300-emolecules-1i-0000221.db2.gz
##########           GlobalRank: 1323
##########                 Rank:                    1
##########               Setnum:                   51
##########             Matchnum:                 2220
##########                Cloud:                    1
##########        Electrostatic:           -31.617477
##########        Van der Waals:           -20.821323
##########  Ligand Polar Desolv:            10.497789
########## Ligand Apolar Desolv:            -0.454838
##########      Internal Energy:             0.000000
##########      Receptor Energy: 0.0
########## Receptor Desolvation:             0.000000
########## Receptor Hydrophobic:             0.000000
##########         Total Energy: -42.4
##########        Ligand Charge:             1.000000
##########            Arbitrary:    +999.9990
##########     heavy atom count:   19
##########           pose count:    1
##########        Ligand Energy:             0.000000
# num electro vdwattr vdwrepu polsolv apolsol rdesolv rhydroe totalscore fullpol fullapo
#   1    1.16   -1.97    1.10   -1.38   -0.07    0.00    0.00      -1.15   -3.33   -0.18
#   2    0.74   -0.55    0.04   -0.61   -0.05    0.00    0.00      -0.43   -2.12   -0.18
#   3    0.37   -0.39    0.02   -0.96   -0.04    0.00    0.00      -1.00   -4.20   -0.18
#   4    1.99   -0.84    0.26   -1.05   -0.05    0.00    0.00       0.31   -3.75   -0.18
#   5   -0.12   -1.02    0.35    0.66   -0.10    0.00    0.00      -0.22    1.96   -0.29
#   6   17.21   -2.31    3.03   -8.14    0.26    0.00    0.00      10.04  -22.13    0.71
#   7  -12.22   -0.03    0.00    6.17    0.20    0.00    0.00      -5.87   17.69    0.58
#   8   -8.80   -0.02    0.00    3.50    0.12    0.00    0.00      -5.19   16.41    0.56
#   9  -19.26   -0.31    0.34    6.97    0.18    0.00    0.00     -12.08   18.62    0.47
#  10   -6.03   -0.84    0.04    4.46   -0.20    0.00    0.00      -2.57   13.21   -0.59
#  11    4.66   -1.05    0.15   -3.79    0.11    0.00    0.00       0.09  -12.67    0.38
#  12    6.42   -0.99    0.06   -7.04    0.97    0.00    0.00      -0.58  -16.91    2.33
#  13   -0.39   -1.03    0.15    1.50   -0.19    0.00    0.00       0.04    3.39   -0.43
#  14   -0.09   -1.53    0.28   -0.25   -0.15    0.00    0.00      -1.74   -0.59   -0.36
#  15   -0.16   -1.63    0.43   -0.39   -0.21    0.00    0.00      -1.95   -0.85   -0.46
#  16    0.24   -1.76    0.55    0.19   -0.45    0.00    0.00      -1.23    0.33   -0.77
#  17   -2.39   -2.19    0.53   -1.67    0.83    0.00    0.00      -4.90   -2.76    1.37
#  18    0.59   -6.57    4.06    1.83   -0.58    0.00    0.00      -0.66    2.73   -0.86
#  19   -3.00   -4.60    2.86   -1.36    0.90    0.00    0.00      -5.21   -2.08    1.37
#  20    0.21   -2.18    0.47    0.15   -0.45    0.00    0.00      -1.80    0.26   -0.77
#  21   -0.03   -2.30    0.94   -0.67   -0.24    0.00    0.00      -2.29   -1.32   -0.47
#  22    0.00   -1.82    0.49   -0.21   -0.20    0.00    0.00      -1.73   -0.47   -0.45
#  23   -0.80   -0.84    1.47    0.11   -0.11    0.00    0.00      -0.17    0.28   -0.28
#  24   -0.52   -1.32    1.84    0.52   -0.13    0.00    0.00       0.39    1.11   -0.28
#  25   -0.14   -0.68    0.58    0.16   -0.11    0.00    0.00      -0.19    0.40   -0.28
#  26   -0.45   -0.11    0.00    0.48   -0.02    0.00    0.00      -0.10    4.39   -0.22
#  27   -0.10   -0.06    0.00    0.19   -0.01    0.00    0.00       0.02    3.55   -0.22
#  28   -0.06   -0.11    0.01    0.03   -0.03    0.00    0.00      -0.17    0.26   -0.28
#  29   -0.03   -0.16    0.01    0.12   -0.05    0.00    0.00      -0.12    0.62   -0.28
#  30   -1.17   -0.11    0.01    0.27   -0.03    0.00    0.00      -1.03    2.52   -0.28
#  31   -1.90   -0.71    0.87    0.86   -0.08    0.00    0.00      -0.96    2.97   -0.28
#  32   -3.77   -0.49    0.20    2.72   -0.07    0.00    0.00      -1.41    7.74   -0.21
#  33   -4.52   -0.02    0.00    2.82    0.14    0.00    0.00      -1.58   11.17    0.56
#  34   -0.28   -0.43    0.07    0.77   -0.11    0.00    0.00       0.02    1.94   -0.28
#  35    0.01   -0.52    0.25    0.68   -0.11    0.00    0.00       0.30    1.69   -0.28
#  36    1.35   -0.34    0.08    0.95   -0.10    0.00    0.00       1.94    2.67   -0.28
#  37   -0.15   -0.58    0.28    0.69   -0.12    0.00    0.00       0.11    1.61   -0.28
#  38   -0.18   -0.40    0.14    1.21   -0.08    0.00    0.00       0.68    4.05   -0.28
@<TRIPOS>MOLECULE
E43115344
   38    39     0     0     0
SMALL
USER_CHARGES


@<TRIPOS>ATOM
      1 C1         25.4353   16.3443   59.2200 C.3       1            -0.1555
      2 C2         26.1695   17.3349   60.1260 C.3       1            -0.1026
      3 C3         27.6760   17.2308   59.8802 C.3       1            -0.1662
      4 C4         25.6988   18.7568   59.8137 C.3       1            -0.1397
      5 C5         24.1922   18.8609   60.0593 C.3       1             0.0058
      6 N1         23.7404   20.2261   59.7596 N.4       1            -0.6215
      7 H1         22.7468   20.2948   59.9216 H         1             0.4411
      8 H2         24.2245   20.8794   60.3570 H         1             0.4428
      9 H3         23.9395   20.4420   58.7942 H         1             0.4406
     10 C6         23.8949   18.5386   61.5011 C.2       1             0.5025
     11 O1         24.7171   18.7816   62.3589 O.2       1            -0.5200
     12 N2         22.7152   17.9804   61.8374 N.am      1            -0.6983
     13 C7         22.4260   17.6672   63.2390 C.3       1             0.1598
     14 C8         22.1769   16.1879   63.3822 C.ar      1            -0.0969
     15 C9         20.9175   15.7125   63.2409 C.ar      1            -0.0341
     16 C10        20.6615   14.3207   63.3721 C.ar      1             0.0568
     17 N3         19.4979   13.6775   63.2672 N.2       1            -0.5010
     18 S1         19.8366   12.1241   63.5126 S.3       1             0.6736
     19 N4         21.4258   12.1527   63.7607 N.2       1            -0.5010
     20 C11        21.7831   13.4336   63.6592 C.ar      1             0.0687
     21 C12        23.0779   14.0038   63.7939 C.ar      1            -0.0552
     22 C13        23.2505   15.3388   63.6515 C.ar      1            -0.0890
     23 H4         24.3619   16.4185   59.3951 H         1             0.0703
     24 H5         25.6503   16.5774   58.1773 H         1             0.0633
     25 H6         25.7704   15.3313   59.4424 H         1             0.0668
     26 H7         25.9544   17.1017   61.1688 H         1             0.0677
     27 H8         28.1990   17.9364   60.5256 H         1             0.0526
     28 H9         28.0112   16.2177   60.1025 H         1             0.0740
     29 H10        27.8910   17.4641   58.8374 H         1             0.0710
     30 H11        26.2218   19.4627   60.4590 H         1             0.1189
     31 H12        25.9138   18.9899   58.7708 H         1             0.1013
     32 H13        23.6693   18.1552   59.4139 H         1             0.1659
     33 H14        22.0575   17.7860   61.1514 H         1             0.4125
     34 H15        23.2760   17.9541   63.8582 H         1             0.0969
     35 H16        21.5411   18.2173   63.5591 H         1             0.0939
     36 H17        20.1055   16.3922   63.0285 H         1             0.1442
     37 H18        23.9264   13.3703   64.0064 H         1             0.1479
     38 H19        24.2412   15.7567   63.7531 H         1             0.1419
@<TRIPOS>BOND
     1    1    2 1 
     2    1   23 1 
     3    1   24 1 
     4    1   25 1 
     5    2    3 1 
     6    2    4 1 
     7    2   26 1 
     8    3   27 1 
     9    3   28 1 
    10    3   29 1 
    11    4    5 1 
    12    4   30 1 
    13    4   31 1 
    14    5    6 1 
    15    5   10 1 
    16    5   32 1 
    17    6    7 1 
    18    6    8 1 
    19    6    9 1 
    20   10   11 2 
    21   10   12 am
    22   12   13 1 
    23   12   33 1 
    24   13   14 1 
    25   13   34 1 
    26   13   35 1 
    27   14   22 ar
    28   14   15 ar
    29   15   16 ar
    30   15   36 1 
    31   16   20 ar
    32   16   17 2 
    33   17   18 1 
    34   18   19 1 
    35   19   20 2 
    36   20   21 ar
    37   21   22 ar
    38   21   37 1 
    39   22   38 1 
##########                 Name:            E36555450
##########          Protonation:                  100
##########               SMILES:   CC1([C@H](C[C@H]1[NH2+]C2CCC2)Cc3cc(on3)CCO)C
##########            Long Name:   3-[[5-(2-hydroxyethyl)isoxazol-3-yl]methyl]-2,2-dimethyl-cyclobutyl]ammonium
##########          FlexRecCode: 1
##########               Number:                  132
##########   Ligand Source File: /raidb/db2/rgc/leads-emolecules-300/leads-lt300-emolecules-1i-0000265.db2.gz
##########           GlobalRank: 1329
##########                 Rank:                    1
##########               Setnum:                  334
##########             Matchnum:                 4605
##########                Cloud:                    1
##########        Electrostatic:           -26.645977
##########        Van der Waals:           -21.442459
##########  Ligand Polar Desolv:             7.274426
########## Ligand Apolar Desolv:            -1.576092
##########      Internal Energy:             0.000000
##########      Receptor Energy: 0.0
########## Receptor Desolvation:             0.000000
########## Receptor Hydrophobic:             0.000000
##########         Total Energy: -42.39
##########        Ligand Charge:             1.000000
##########            Arbitrary:    +999.9990
##########     heavy atom count:   20
##########           pose count:    1
##########        Ligand Energy:             0.000000
# num electro vdwattr vdwrepu polsolv apolsol rdesolv rhydroe totalscore fullpol fullapo
#   1    2.55   -1.20    0.18   -1.87   -0.10    0.00    0.00      -0.43   -3.46   -0.18
#   2    1.28   -0.76    0.05   -0.42   -0.05    0.00    0.00       0.10   -0.95   -0.11
#   3    2.63   -1.04    0.27   -1.78   -0.05    0.00    0.00       0.03   -4.69   -0.14
#   4    0.74   -0.97    0.11   -1.03   -0.08    0.00    0.00      -1.24   -2.43   -0.20
#   5    0.14   -0.86    0.08   -0.31   -0.08    0.00    0.00      -1.04   -0.74   -0.20
#   6    0.21   -1.58    0.32    0.66   -0.32    0.00    0.00      -0.72    1.51   -0.72
#   7   -2.73   -2.26    1.16   -1.30    0.57    0.00    0.00      -4.56   -2.84    1.24
#   8   -0.73   -1.37    0.17   -0.46   -0.07    0.00    0.00      -2.46   -0.91   -0.14
#   9    0.51   -1.63    0.28    0.20   -0.18    0.00    0.00      -0.82    0.35   -0.31
#  10   -0.24   -1.55    0.49   -0.26   -0.16    0.00    0.00      -1.72   -0.42   -0.26
#  11    0.20   -2.15    0.59    0.43   -0.10    0.00    0.00      -1.03    0.65   -0.15
#  12   -2.11   -3.82    2.11   -2.58    1.14    0.00    0.00      -5.27   -4.00    1.76
#  13   -0.90   -1.75    0.43   -1.40   -0.23    0.00    0.00      -3.85   -2.95   -0.49
#  14    1.67   -1.29    0.40   -1.32   -0.11    0.00    0.00      -0.67   -3.46   -0.30
#  15    0.05   -1.05    0.24    0.72   -0.12    0.00    0.00      -0.17    1.79   -0.30
#  16   11.95   -1.59    0.89   -5.26    0.17    0.00    0.00       6.16  -14.98    0.49
#  17   -7.93   -0.02    0.00    2.58    0.08    0.00    0.00      -5.29   15.73    0.49
#  18  -15.01   -0.09    0.02    5.81    0.18    0.00    0.00      -9.10   16.01    0.51
#  19    0.16   -1.25    0.42    0.52   -0.12    0.00    0.00      -0.28    1.53   -0.36
#  20    1.16   -1.19    0.57   -1.16   -0.10    0.00    0.00      -0.71   -3.60   -0.32
#  21    0.81   -0.46    0.02   -1.08   -0.09    0.00    0.00      -0.81   -3.88   -0.34
#  22    1.37   -0.67    0.11   -0.98   -0.09    0.00    0.00      -0.26   -3.51   -0.32
#  23   -0.79   -0.41    0.08    0.99   -0.12    0.00    0.00      -0.25    2.32   -0.28
#  24   -1.14   -0.47    0.26    0.30   -0.12    0.00    0.00      -1.17    0.71   -0.28
#  25   -1.79   -0.65    0.36    0.36   -0.12    0.00    0.00      -1.84    0.80   -0.27
#  26   -0.85   -0.16    0.01    0.63   -0.05    0.00    0.00      -0.42    3.58   -0.26
#  27   -0.83   -0.57    0.52    0.86   -0.07    0.00    0.00      -0.09    2.72   -0.22
#  28   -2.31   -0.60    0.30    0.50   -0.12    0.00    0.00      -2.22    1.22   -0.28
#  29   -0.73   -0.57    0.23    0.43   -0.11    0.00    0.00      -0.74    1.09   -0.27
#  30   -0.60   -0.17    0.01    0.41   -0.05    0.00    0.00      -0.40    2.28   -0.28
#  31   -0.20   -0.46    0.10    1.08   -0.09    0.00    0.00       0.43    2.81   -0.23
#  32    0.48   -0.88    1.55    0.24   -0.15    0.00    0.00       1.23    0.45   -0.28
#  33    0.43   -0.52    0.18    0.57   -0.13    0.00    0.00       0.52    1.22   -0.28
#  34   -0.14   -1.37    1.79    0.55   -0.19    0.00    0.00       0.65    0.83   -0.28
#  35    0.18   -0.67    0.25    0.19   -0.17    0.00    0.00      -0.21    0.31   -0.28
#  36    0.34   -0.08    0.01    2.16    0.62    0.00    0.00       3.06    4.34    1.24
#  37    0.32   -0.37    0.10    0.94   -0.10    0.00    0.00       0.89    2.64   -0.28
#  38   -1.21   -1.30    2.03    0.49   -0.11    0.00    0.00      -0.10    1.25   -0.28
#  39   -1.02   -0.22    0.02    0.74   -0.05    0.00    0.00      -0.53    3.55   -0.24
#  40   -4.00   -0.61    0.44    1.82   -0.10    0.00    0.00      -2.45    4.92   -0.28
#  41   -4.59   -1.02    1.80    1.71   -0.10    0.00    0.00      -2.21    4.58   -0.28
#  42   -1.05   -0.41    0.32    0.89   -0.07    0.00    0.00      -0.32    3.66   -0.27
#  43   -0.63   -0.54    0.25    0.59   -0.10    0.00    0.00      -0.43    1.71   -0.28
#  44   -0.25   -0.10    0.00    0.08   -0.03    0.00    0.00      -0.29    0.88   -0.28
#  45   -0.63   -0.14    0.01    0.14   -0.04    0.00    0.00      -0.67    0.96   -0.28
#  46   -0.77   -0.47    0.44    0.44   -0.07    0.00    0.00      -0.42    1.84   -0.28
#  47   -0.61   -0.13    0.01    0.47   -0.04    0.00    0.00      -0.29    3.75   -0.28
@<TRIPOS>MOLECULE
E36555450
   47    49     0     0     0
SMALL
USER_CHARGES


@<TRIPOS>ATOM
      1 C1         20.8531   18.7533   60.4422 C.3       1            -0.1499
      2 C2         22.2803   18.8367   60.9877 C.3       1            -0.0797
      3 C3         23.2432   17.8808   60.2809 C.3       1            -0.1619
      4 C4         22.3580   18.7696   62.5221 C.3       1            -0.0868
      5 C5         22.8645   17.4266   63.0519 C.3       1            -0.0387
      6 C6         21.6938   16.5108   63.3002 C.2       1             0.1029
      7 N1         20.4393   16.8010   63.1004 N.2       1            -0.3175
      8 O1         19.6677   15.6683   63.4571 O.3       1            -0.0732
      9 C7         20.5103   14.7095   63.8707 C.2       1             0.0913
     10 C8         20.1216   13.3327   64.3444 C.3       1            -0.0601
     11 C9         20.0918   12.3730   63.1531 C.3       1             0.0820
     12 O2         21.3863   12.3216   62.5503 O.3       1            -0.5695
     13 C10        21.7649   15.1915   63.7824 C.2       1            -0.2840
     14 C11        23.4499   19.8490   62.4355 C.3       1            -0.1389
     15 C12        22.8130   20.2747   61.1021 C.3       1            -0.0022
     16 N2         23.7942   20.6230   60.0658 N.4       1            -0.4943
     17 H1         24.6971   20.2505   60.3190 H         1             0.4245
     18 H2         23.5042   20.2308   59.1825 H         1             0.4241
     19 C13        23.8833   22.0845   59.9470 C.3       1            -0.0082
     20 C14        24.9324   22.5568   58.9267 C.3       1            -0.1475
     21 C15        25.2907   23.6681   59.9275 C.3       1            -0.1350
     22 C16        24.7572   22.7385   61.0303 C.3       1            -0.1502
     23 H3         20.5448   17.7092   60.3894 H         1             0.0652
     24 H4         20.1792   19.2984   61.1031 H         1             0.0791
     25 H5         20.8189   19.1931   59.4454 H         1             0.0711
     26 H6         24.2395   17.9851   60.7107 H         1             0.0639
     27 H7         22.8972   16.8552   60.4102 H         1             0.0719
     28 H8         23.2790   18.1210   59.2183 H         1             0.0945
     29 H9         21.4488   19.1055   63.0205 H         1             0.1138
     30 H10        23.5304   16.9741   62.3171 H         1             0.1038
     31 H11        23.4062   17.5848   63.9843 H         1             0.0968
     32 H12        20.8492   12.9813   65.0758 H         1             0.1029
     33 H13        19.1341   13.3720   64.8042 H         1             0.1118
     34 H14        19.8105   11.3772   63.4957 H         1             0.0536
     35 H15        19.3641   12.7246   62.4216 H         1             0.0537
     36 H16        21.7012   13.1748   62.2216 H         1             0.3914
     37 H17        22.6683   14.6583   64.0394 H         1             0.1621
     38 H18        23.3776   20.6068   63.2156 H         1             0.1049
     39 H19        24.4565   19.4444   62.3290 H         1             0.1056
     40 H20        22.0285   21.0236   61.2123 H         1             0.1610
     41 H21        22.9098   22.5594   59.8259 H         1             0.1595
     42 H22        25.7370   21.8397   58.7639 H         1             0.1032
     43 H23        24.5011   22.9288   57.9973 H         1             0.1002
     44 H24        26.3608   23.8619   60.0000 H         1             0.0960
     45 H25        24.7025   24.5767   59.8001 H         1             0.1016
     46 H26        24.1844   23.2569   61.7991 H         1             0.1019
     47 H27        25.5138   22.0709   61.4426 H         1             0.1035
@<TRIPOS>BOND
     1    1    2 1 
     2    1   23 1 
     3    1   24 1 
     4    1   25 1 
     5    2   15 1 
     6    2    3 1 
     7    2    4 1 
     8    3   26 1 
     9    3   27 1 
    10    3   28 1 
    11    4    5 1 
    12    4   14 1 
    13    4   29 1 
    14    5    6 1 
    15    5   30 1 
    16    5   31 1 
    17    6   13 1 
    18    6    7 2 
    19    7    8 1 
    20    8    9 1 
    21    9   10 1 
    22    9   13 2 
    23   10   11 1 
    24   10   32 1 
    25   10   33 1 
    26   11   12 1 
    27   11   34 1 
    28   11   35 1 
    29   12   36 1 
    30   13   37 1 
    31   14   15 1 
    32   14   38 1 
    33   14   39 1 
    34   15   16 1 
    35   15   40 1 
    36   16   17 1 
    37   16   18 1 
    38   16   19 1 
    39   19   22 1 
    40   19   20 1 
    41   19   41 1 
    42   20   21 1 
    43   20   42 1 
    44   20   43 1 
    45   21   22 1 
    46   21   44 1 
    47   21   45 1 
    48   22   46 1 
    49   22   47 1 
##########                 Name:             E1344737
##########          Protonation:                   66
##########               SMILES:   c1cc(c(cc1F)F)CN2CC[NH+](CC2)CCO
##########            Long Name:   2-[4-[(2,4-difluorophenyl)methyl]piperazin-1-ium-1-yl]ethanol
##########          FlexRecCode: 1
##########               Number:                  516
##########   Ligand Source File: /raidb/db2/rgc/leads-emolecules-300/leads-emolecules-3-ae-0000009.db2.gz
##########           GlobalRank: 1337
##########                 Rank:                    1
##########               Setnum:                   35
##########             Matchnum:                 2163
##########                Cloud:                    1
##########        Electrostatic:           -27.330011
##########        Van der Waals:           -21.521261
##########  Ligand Polar Desolv:             7.993852
########## Ligand Apolar Desolv:            -1.526630
##########      Internal Energy:             0.000000
##########      Receptor Energy: 0.0
########## Receptor Desolvation:             0.000000
########## Receptor Hydrophobic:             0.000000
##########         Total Energy: -42.38
##########        Ligand Charge:             1.000000
##########            Arbitrary:    +999.9990
##########     heavy atom count:   18
##########           pose count:    1
##########        Ligand Energy:             0.000000
# num electro vdwattr vdwrepu polsolv apolsol rdesolv rhydroe totalscore fullpol fullapo
#   1    9.22   -1.87    1.55   -4.58    0.54    0.00    0.00       4.86  -14.37    1.68
#   2   -0.71   -0.68    0.09    0.29   -0.04    0.00    0.00      -1.05    0.99   -0.14
#   3    0.32   -0.94    0.16   -0.04   -0.12    0.00    0.00      -0.61   -0.12   -0.32
#   4    8.92   -1.48    0.72   -3.89    0.16    0.00    0.00       4.43  -10.59    0.43
#   5  -15.97   -0.12    0.04    5.19    0.19    0.00    0.00     -10.68   13.96    0.52
#   6    0.04   -1.09    0.19    0.21   -0.18    0.00    0.00      -0.82    0.48   -0.42
#   7   -0.26   -0.71    0.06    0.19   -0.17    0.00    0.00      -0.89    0.45   -0.39
#   8    3.86   -0.96    0.07   -4.53    1.16    0.00    0.00      -0.40  -12.52    3.21
#   9   -0.22   -1.15    0.21    0.82   -0.15    0.00    0.00      -0.49    1.96   -0.36
#  10   -0.13   -1.64    0.33   -0.67   -0.13    0.00    0.00      -2.24   -1.53   -0.30
#  11    0.73   -1.70    0.42    0.55   -0.15    0.00    0.00      -0.15    1.23   -0.34
#  12   -1.23   -1.37    0.62   -0.62   -0.21    0.00    0.00      -2.81   -1.33   -0.46
#  13   -0.98   -1.62    0.28   -1.07   -0.27    0.00    0.00      -3.65   -1.84   -0.46
#  14    0.53   -2.13    0.41    0.25   -0.21    0.00    0.00      -1.15    0.41   -0.34
#  15   -0.35   -1.87    0.44   -0.56   -0.32    0.00    0.00      -2.67   -0.84   -0.48
#  16   -0.26   -2.60    0.81   -1.09   -0.26    0.00    0.00      -3.40   -1.97   -0.47
#  17    0.01   -1.93    0.56   -0.23   -0.20    0.00    0.00      -1.78   -0.49   -0.42
#  18   -0.20   -0.62    0.07    0.08   -0.11    0.00    0.00      -0.78    0.26   -0.37
#  19    0.10   -0.59    0.06    0.07   -0.12    0.00    0.00      -0.47    0.26   -0.41
#  20  -11.29   -0.16    0.08    2.92    0.37    0.00    0.00      -8.07    9.85    1.24
#  21   -0.70   -0.12    0.00    0.33   -0.03    0.00    0.00      -0.51    2.72   -0.23
#  22   -1.15   -0.25    0.07    0.36   -0.06    0.00    0.00      -1.03    1.73   -0.28
#  23   -2.28   -0.33    0.10    1.14   -0.04    0.00    0.00      -1.40    4.73   -0.15
#  24   -3.80   -0.45    0.15    1.57   -0.10    0.00    0.00      -2.64    4.34   -0.28
#  25   -3.28   -0.41    0.08    2.08   -0.11    0.00    0.00      -1.64    5.25   -0.28
#  26   -2.62   -0.66    0.66    1.48   -0.11    0.00    0.00      -1.26    3.64   -0.28
#  27   -0.66   -0.25    0.02    0.69   -0.06    0.00    0.00      -0.25    2.59   -0.21
#  28   -0.71   -0.26    0.05    0.56   -0.08    0.00    0.00      -0.44    2.03   -0.28
#  29   -0.16   -0.69    0.46    0.82   -0.09    0.00    0.00       0.35    2.34   -0.27
#  30   -0.09   -0.47    0.11    0.51   -0.11    0.00    0.00      -0.05    1.23   -0.27
#  31    1.06   -0.29    0.03    0.26   -0.10    0.00    0.00       0.96    0.72   -0.28
#  32    0.13   -1.06    0.98    1.12   -0.15    0.00    0.00       1.02    2.15   -0.28
#  33   -0.24   -0.34    0.06    1.44   -0.09    0.00    0.00       0.84    4.51   -0.28
#  34   -0.54   -0.26    0.04    0.65   -0.05    0.00    0.00      -0.16    2.88   -0.22
#  35   -0.98   -0.26    0.10    0.30   -0.04    0.00    0.00      -0.87    1.82   -0.23
#  36   -1.82   -0.21    0.02    0.80   -0.06    0.00    0.00      -1.27    3.50   -0.28
#  37   -1.64   -0.13    0.01    0.58   -0.03    0.00    0.00      -1.21    4.86   -0.23
@<TRIPOS>MOLECULE
E1344737
   37    38     0     0     0
SMALL
USER_CHARGES


@<TRIPOS>ATOM
      1 O1         24.8038   21.8246   59.2899 O.3       1            -0.5797
      2 C1         24.5904   21.4889   60.6624 C.3       1             0.0474
      3 C2         23.4074   20.5249   60.7738 C.3       1            -0.0153
      4 N1         23.6974   19.3038   60.0103 N.4       1            -0.3815
      5 H1         23.8481   19.5410   59.0413 H         1             0.4357
      6 C3         22.5612   18.3789   60.1168 C.3       1            -0.0023
      7 C4         22.3207   18.0334   61.5880 C.3       1             0.0256
      8 N2         23.5313   17.4159   62.1475 N.3       1            -0.5338
      9 C5         23.3210   17.0173   63.5457 C.3       1             0.1021
     10 C6         22.5732   15.7095   63.5881 C.ar      1            -0.1489
     11 C7         21.1886   15.7045   63.6151 C.ar      1             0.1602
     12 F1         20.5082   16.8715   63.6034 F         1            -0.1211
     13 C8         20.5021   14.5033   63.6537 C.ar      1            -0.1947
     14 C9         21.2006   13.3081   63.6653 C.ar      1             0.1459
     15 F2         20.5319   12.1348   63.7024 F         1            -0.1230
     16 C10        22.5849   13.3156   63.6382 C.ar      1            -0.1639
     17 C11        23.2693   14.5158   63.5944 C.ar      1            -0.0564
     18 C12        24.6830   18.3208   62.0253 C.3       1             0.0217
     19 C13        24.9040   18.6638   60.5508 C.3       1            -0.0069
     20 H2         25.0009   21.0647   58.7252 H         1             0.4100
     21 H3         25.4855   21.0135   61.0636 H         1             0.0711
     22 H4         24.3753   22.3950   61.2289 H         1             0.0941
     23 H5         23.2446   20.2689   61.8206 H         1             0.1387
     24 H6         22.5123   21.0004   60.3725 H         1             0.1393
     25 H7         21.6693   18.8500   59.7038 H         1             0.1376
     26 H8         22.7814   17.4676   59.5608 H         1             0.1409
     27 H9         22.0871   18.9428   62.1417 H         1             0.0621
     28 H10        21.4871   17.3354   61.6661 H         1             0.1257
     29 H11        24.2857   16.9003   64.0393 H         1             0.0634
     30 H12        22.7409   17.7843   64.0588 H         1             0.1025
     31 H13        19.4223   14.4984   63.6752 H         1             0.1534
     32 H14        23.1301   12.3834   63.6472 H         1             0.1479
     33 H15        24.3491   14.5207   63.5688 H         1             0.1418
     34 H16        24.4884   19.2349   62.5863 H         1             0.0618
     35 H17        25.5729   17.8325   62.4225 H         1             0.1232
     36 H18        25.1120   17.7509   59.9926 H         1             0.1407
     37 H19        25.7489   19.3461   60.4595 H         1             0.1345
@<TRIPOS>BOND
     1    1    2 1 
     2    1   20 1 
     3    2    3 1 
     4    2   21 1 
     5    2   22 1 
     6    3    4 1 
     7    3   23 1 
     8    3   24 1 
     9    4    5 1 
    10    4   19 1 
    11    4    6 1 
    12    6    7 1 
    13    6   25 1 
    14    6   26 1 
    15    7    8 1 
    16    7   27 1 
    17    7   28 1 
    18    8    9 1 
    19    8   18 1 
    20    9   10 1 
    21    9   29 1 
    22    9   30 1 
    23   10   17 ar
    24   10   11 ar
    25   11   12 1 
    26   11   13 ar
    27   13   14 ar
    28   13   31 1 
    29   14   15 1 
    30   14   16 ar
    31   16   17 ar
    32   16   32 1 
    33   17   33 1 
    34   18   19 1 
    35   18   34 1 
    36   18   35 1 
    37   19   36 1 
    38   19   37 1 
##########                 Name:            E36951380
##########          Protonation:                   34
##########               SMILES:   C[C@@H](c1ccccc1)[NH+]2CC[C@H](C2)NCc3cccnc3
##########            Long Name:   (3R)-1-[(1S)-1-phenylethyl]-N-(3-pyridylmethyl)pyrrolidin-1-ium-3-amine
##########          FlexRecCode: 1
##########               Number:                  367
##########   Ligand Source File: /raidb/db2/rgc/leads-emolecules-300/leads-lt300-emolecules-1j-0000322.db2.gz
##########           GlobalRank: 1337
##########                 Rank:                    1
##########               Setnum:                   39
##########             Matchnum:                 5191
##########                Cloud:                    1
##########        Electrostatic:           -19.979416
##########        Van der Waals:           -25.518063
##########  Ligand Polar Desolv:             5.813367
########## Ligand Apolar Desolv:            -2.695720
##########      Internal Energy:             0.000000
##########      Receptor Energy: 0.0
########## Receptor Desolvation:             0.000000
########## Receptor Hydrophobic:             0.000000
##########         Total Energy: -42.38
##########        Ligand Charge:             1.000000
##########            Arbitrary:    +999.9990
##########     heavy atom count:   21
##########           pose count:    1
##########        Ligand Energy:             0.000000
# num electro vdwattr vdwrepu polsolv apolsol rdesolv rhydroe totalscore fullpol fullapo
#   1    1.95   -0.55    0.12   -1.08   -0.04    0.00    0.00       0.40   -5.04   -0.19
#   2   -1.01   -0.51    0.04    0.87   -0.04    0.00    0.00      -0.65    3.26   -0.16
#   3    7.81   -1.01    0.21   -3.86    0.09    0.00    0.00       3.23  -11.13    0.26
#   4  -12.87   -0.05    0.00    4.45    0.13    0.00    0.00      -8.33   14.60    0.44
#   5    0.10   -1.11    0.29    0.09   -0.16    0.00    0.00      -0.79    0.22   -0.40
#   6    1.62   -0.89    0.10   -1.59   -0.12    0.00    0.00      -0.88   -3.50   -0.27
#   7   -0.64   -0.61    0.03    0.65   -0.12    0.00    0.00      -0.69    1.70   -0.31
#   8    0.27   -0.67    0.07    0.00   -0.14    0.00    0.00      -0.47    0.00   -0.41
#   9    3.35   -1.28    0.39   -5.52    0.92    0.00    0.00      -2.14  -15.04    2.50
#  10    0.04   -1.05    0.18    0.93   -0.18    0.00    0.00      -0.09    2.17   -0.43
#  11   -0.43   -1.66    0.41   -0.74   -0.18    0.00    0.00      -2.60   -1.56   -0.38
#  12   -0.31   -1.59    0.31   -0.42   -0.24    0.00    0.00      -2.26   -0.81   -0.46
#  13   -0.92   -1.89    0.37   -1.01   -0.29    0.00    0.00      -3.75   -1.70   -0.48
#  14    0.34   -2.52    0.48    0.10   -0.63    0.00    0.00      -2.22    0.16   -0.98
#  15   -2.07   -2.85    0.69   -1.94    1.28    0.00    0.00      -4.89   -3.10    2.05
#  16    0.21   -2.05    0.51    0.36   -0.50    0.00    0.00      -1.48    0.67   -0.95
#  17    1.45   -1.16    0.29   -0.64   -0.08    0.00    0.00      -0.16   -2.22   -0.29
#  18    0.03   -1.50    0.47   -0.62   -0.11    0.00    0.00      -1.73   -2.33   -0.42
#  19   -0.25   -1.83    0.69   -0.76   -0.15    0.00    0.00      -2.31   -2.40   -0.47
#  20   -0.06   -1.76    0.74   -0.71   -0.16    0.00    0.00      -1.95   -2.15   -0.47
#  21    1.39   -1.83    0.93   -0.76   -0.15    0.00    0.00      -0.41   -2.33   -0.47
#  22    1.57   -1.71    0.66   -0.64   -0.14    0.00    0.00      -0.26   -1.98   -0.45
#  23   -0.39   -0.07    0.00    0.15   -0.02    0.00    0.00      -0.33    2.15   -0.28
#  24   -1.14   -0.16    0.02    0.22   -0.04    0.00    0.00      -1.10    1.53   -0.28
#  25   -1.29   -0.43    0.44    0.75   -0.04    0.00    0.00      -0.58    3.55   -0.21
#  26   -1.19   -0.16    0.01    0.88   -0.04    0.00    0.00      -0.50    5.65   -0.27
#  27   -2.69   -0.95    2.34    1.31   -0.08    0.00    0.00      -0.06    4.24   -0.26
#  28   -3.52   -0.43    0.12    1.52   -0.10    0.00    0.00      -2.41    4.05   -0.27
#  29   -0.92   -0.48    0.13    0.81   -0.11    0.00    0.00      -0.57    2.13   -0.28
#  30   -1.35   -0.24    0.02    0.64   -0.08    0.00    0.00      -1.01    2.15   -0.28
#  31   -0.64   -0.25    0.03    0.63   -0.07    0.00    0.00      -0.29    2.54   -0.27
#  32   -2.60   -0.36    0.10    1.62   -0.09    0.00    0.00      -1.33    4.92   -0.27
#  33   -1.63   -0.14    0.01    0.85   -0.03    0.00    0.00      -0.95    5.55   -0.22
#  34   -1.92   -0.02    0.00    1.64    0.12    0.00    0.00      -0.18    7.90    0.56
#  35    0.03   -0.49    0.20    0.44   -0.10    0.00    0.00       0.09    1.27   -0.28
#  36    0.20   -0.45    0.16    0.68   -0.10    0.00    0.00       0.48    1.85   -0.28
#  37    1.51   -0.33    0.06    0.90   -0.10    0.00    0.00       2.05    2.57   -0.28
#  38    0.99   -0.56    0.36    0.73   -0.12    0.00    0.00       1.39    1.66   -0.28
#  39   -0.12   -0.86    0.46    0.62   -0.18    0.00    0.00      -0.07    0.98   -0.28
#  40   -0.01   -0.43    0.13    0.95   -0.11    0.00    0.00       0.53    2.36   -0.28
#  41    0.24   -0.26    0.06    1.04   -0.05    0.00    0.00       1.03    5.05   -0.23
#  42    0.39   -0.31    0.07    0.52   -0.08    0.00    0.00       0.58    1.90   -0.28
#  43    0.22   -0.28    0.04    0.26   -0.08    0.00    0.00       0.16    0.90   -0.28
#  44   -2.49   -0.39    0.17    0.34   -0.07    0.00    0.00      -2.45    1.29   -0.28
#  45   -3.25   -0.54    0.28    1.15   -0.10    0.00    0.00      -2.44    3.39   -0.28
@<TRIPOS>MOLECULE
E36951380
   45    47     0     0     0
SMALL
USER_CHARGES


@<TRIPOS>ATOM
      1 C1         26.2136   20.3502   60.0480 C.3       1            -0.1790
      2 C2         25.0731   20.4168   61.0658 C.3       1             0.0805
      3 N1         23.8712   19.7932   60.4959 N.4       1            -0.3845
      4 H1         23.7844   20.0448   59.5227 H         1             0.4236
      5 C3         22.6936   20.2341   61.2264 C.3       1            -0.0052
      6 C4         22.0874   18.9905   61.8772 C.3       1            -0.1352
      7 C5         23.3248   18.0775   61.9993 C.3       1             0.0696
      8 C6         23.9576   18.3408   60.6262 C.3       1            -0.0175
      9 N2         22.9392   16.6684   62.1524 N.3       1            -0.6719
     10 C7         22.5505   16.3765   63.5386 C.3       1             0.1063
     11 C8         21.7173   15.1211   63.5729 C.ar      1            -0.1533
     12 C9         20.3383   15.1900   63.4430 C.ar      1            -0.0505
     13 C10        19.6124   14.0096   63.4805 C.ar      1            -0.1710
     14 C11        20.2823   12.8118   63.6450 C.ar      1             0.1094
     15 N3         21.5951   12.7843   63.7659 N.ar      1            -0.4823
     16 C12        22.3181   13.8866   63.7286 C.ar      1             0.1073
     17 C13        24.7815   21.8570   61.3999 C.ar      1            -0.1387
     18 C14        25.4468   22.4728   62.4434 C.ar      1            -0.1230
     19 C15        25.1793   23.7940   62.7500 C.ar      1            -0.1033
     20 C16        24.2469   24.4995   62.0127 C.ar      1            -0.0928
     21 C17        23.5821   23.8838   60.9685 C.ar      1            -0.1041
     22 C18        23.8527   22.5640   60.6593 C.ar      1            -0.0909
     23 H2         27.1054   20.8128   60.4708 H         1             0.0826
     24 H3         26.4245   19.3085   59.8062 H         1             0.1069
     25 H4         25.9233   20.8820   59.1418 H         1             0.0840
     26 H5         25.3635   19.8852   61.9719 H         1             0.1414
     27 H6         22.9776   20.9558   61.9924 H         1             0.1317
     28 H7         21.9757   20.6843   60.5408 H         1             0.1347
     29 H8         21.6752   19.2241   62.8589 H         1             0.1140
     30 H9         21.3316   18.5409   61.2334 H         1             0.1087
     31 H10        23.9799   18.4007   62.8084 H         1             0.0847
     32 H11        23.3883   17.8479   59.8384 H         1             0.1400
     33 H12        24.9971   18.0131   60.6138 H         1             0.1360
     34 H13        23.6808   16.0556   61.8481 H         1             0.3541
     35 H14        23.4452   16.2353   64.1448 H         1             0.0534
     36 H15        21.9699   17.2090   63.9361 H         1             0.0897
     37 H16        19.8419   16.1406   63.3159 H         1             0.1351
     38 H17        18.5369   14.0257   63.3828 H         1             0.1401
     39 H18        19.7241   11.8878   63.6754 H         1             0.1606
     40 H19        23.3920   13.8241   63.8257 H         1             0.1506
     41 H20        26.1754   21.9216   63.0195 H         1             0.1173
     42 H21        25.6986   24.2749   63.5657 H         1             0.1354
     43 H22        24.0373   25.5313   62.2525 H         1             0.1360
     44 H23        22.8534   24.4349   60.3927 H         1             0.1370
     45 H24        23.3361   22.0841   59.8411 H         1             0.1327
@<TRIPOS>BOND
     1    1    2 1 
     2    1   23 1 
     3    1   24 1 
     4    1   25 1 
     5    2    3 1 
     6    2   17 1 
     7    2   26 1 
     8    3    4 1 
     9    3    8 1 
    10    3    5 1 
    11    5    6 1 
    12    5   27 1 
    13    5   28 1 
    14    6    7 1 
    15    6   29 1 
    16    6   30 1 
    17    7    8 1 
    18    7    9 1 
    19    7   31 1 
    20    8   32 1 
    21    8   33 1 
    22    9   10 1 
    23    9   34 1 
    24   10   11 1 
    25   10   35 1 
    26   10   36 1 
    27   11   16 ar
    28   11   12 ar
    29   12   13 ar
    30   12   37 1 
    31   13   14 ar
    32   13   38 1 
    33   14   15 ar
    34   14   39 1 
    35   15   16 ar
    36   16   40 1 
    37   17   22 ar
    38   17   18 ar
    39   18   19 ar
    40   18   41 1 
    41   19   20 ar
    42   19   42 1 
    43   20   21 ar
    44   20   43 1 
    45   21   22 ar
    46   21   44 1 
    47   22   45 1 
##########                 Name:            E29944351
##########          Protonation:                  100
##########               SMILES:   Cc1ccccc1C(=O)OCC(=O)c2ccc3c(c2)CCC3
##########            Long Name:   (2-indan-5-yl-2-oxo-ethyl)
##########          FlexRecCode: 1
##########               Number:                  351
##########   Ligand Source File: /raidb/db2/rgc/leads-emolecules-300/leads-emolecules-2g-0000024.db2.gz
##########           GlobalRank: 1378
##########                 Rank:                    1
##########               Setnum:                  286
##########             Matchnum:                 5961
##########                Cloud:                    1
##########        Electrostatic:            -7.740541
##########        Van der Waals:           -33.558720
##########  Ligand Polar Desolv:             4.858730
########## Ligand Apolar Desolv:            -5.892195
##########      Internal Energy:             0.000000
##########      Receptor Energy: 0.0
########## Receptor Desolvation:             0.000000
########## Receptor Hydrophobic:             0.000000
##########         Total Energy: -42.33
##########        Ligand Charge:             0.000000
##########            Arbitrary:    +999.9990
##########     heavy atom count:   22
##########           pose count:    1
##########        Ligand Energy:             0.000000
# num electro vdwattr vdwrepu polsolv apolsol rdesolv rhydroe totalscore fullpol fullapo
#   1   -0.28   -2.85    1.07    0.15   -0.12    0.00    0.00      -2.03    0.22   -0.18
#   2   -0.11   -2.92    0.76    0.06   -0.27    0.00    0.00      -2.47    0.10   -0.41
#   3   -0.78   -3.53    1.13   -0.04   -0.29    0.00    0.00      -3.51   -0.06   -0.44
#   4   -0.74   -2.57    0.61   -0.07   -0.31    0.00    0.00      -3.07   -0.10   -0.47
#   5   -1.69   -2.35    0.66   -0.01   -0.30    0.00    0.00      -3.69   -0.01   -0.47
#   6   -0.77   -2.80    1.03    0.13   -0.27    0.00    0.00      -2.69    0.21   -0.46
#   7   -1.77   -2.44    0.74    0.46   -0.26    0.00    0.00      -3.28    0.71   -0.41
#   8    6.79   -2.03    0.39   -1.60   -0.10    0.00    0.00       3.45   -2.64   -0.16
#   9  -10.39   -2.78    1.80    1.73   -0.18    0.00    0.00      -9.82    3.03   -0.31
#  10   -2.54   -2.02    0.88    1.08    0.09    0.00    0.00      -2.51    1.82    0.15
#  11    0.13   -1.46    0.43   -0.02   -0.05    0.00    0.00      -0.97   -0.04   -0.09
#  12    1.55   -1.82    0.46   -1.05   -0.18    0.00    0.00      -1.04   -1.76   -0.31
#  13   -1.73   -2.18    0.36    2.69   -0.16    0.00    0.00      -1.03    4.24   -0.26
#  14   -0.27   -1.88    1.18    0.25   -0.19    0.00    0.00      -0.92    0.52   -0.41
#  15    0.12   -1.89    0.85   -0.02   -0.20    0.00    0.00      -1.14   -0.04   -0.44
#  16    0.42   -1.25    0.20   -0.06   -0.18    0.00    0.00      -0.87   -0.15   -0.47
#  17    0.31   -1.07    0.11    0.00   -0.15    0.00    0.00      -0.80    0.00   -0.43
#  18    0.75   -0.66    0.09   -0.07   -0.09    0.00    0.00       0.03   -0.22   -0.29
#  19    1.05   -1.09    0.19   -0.10   -0.11    0.00    0.00      -0.05   -0.28   -0.29
#  20    0.68   -0.94    0.10   -0.01   -0.12    0.00    0.00      -0.29   -0.03   -0.29
#  21    0.36   -1.20    0.13    0.10   -0.18    0.00    0.00      -0.80    0.24   -0.43
#  22   -0.09   -1.54    0.38    0.11   -0.19    0.00    0.00      -1.33    0.27   -0.45
#  23   -0.27   -1.57    1.29   -0.12   -0.19    0.00    0.00      -0.86   -0.17   -0.28
#  24   -0.03   -1.01    0.87    0.04   -0.17    0.00    0.00      -0.30    0.06   -0.28
#  25    0.66   -0.84    0.30   -0.16   -0.13    0.00    0.00      -0.17   -0.26   -0.21
#  26   -0.12   -1.39    1.94    0.35   -0.18    0.00    0.00       0.60    0.54   -0.28
#  27    1.20   -0.64    0.35    0.49   -0.16    0.00    0.00       1.23    0.86   -0.28
#  28    1.34   -0.48    0.12    0.20   -0.13    0.00    0.00       1.05    0.42   -0.28
#  29    1.52   -0.77    0.45   -0.25   -0.15    0.00    0.00       0.79   -0.45   -0.27
#  30    0.52   -0.75    0.60    0.02   -0.15    0.00    0.00       0.23    0.03   -0.28
#  31    0.74   -0.42    0.11    0.01   -0.12    0.00    0.00       0.32    0.03   -0.28
#  32   -0.42   -0.51    0.22    0.28   -0.10    0.00    0.00      -0.53    0.68   -0.24
#  33   -0.54   -0.18    0.01    0.14   -0.06    0.00    0.00      -0.62    0.70   -0.28
#  34   -0.74   -0.38    0.29    0.07   -0.05    0.00    0.00      -0.81    0.35   -0.28
#  35   -0.89   -0.13    0.00    0.05   -0.04    0.00    0.00      -1.00    0.38   -0.28
#  36   -0.40   -0.87    0.62    0.17   -0.11    0.00    0.00      -0.59    0.41   -0.28
#  37   -0.87   -0.25    0.03    0.04   -0.06    0.00    0.00      -1.12    0.18   -0.28
#  38   -0.49   -0.55    0.16    0.03   -0.12    0.00    0.00      -0.97    0.07   -0.28
#  39   -1.06   -0.21    0.01    0.00   -0.07    0.00    0.00      -1.32    0.01   -0.28
#  40    1.10   -0.35    0.08   -0.21   -0.09    0.00    0.00       0.54   -0.61   -0.26
@<TRIPOS>MOLECULE
E29944351
   40    42     0     0     0
SMALL
USER_CHARGES


@<TRIPOS>ATOM
      1 C1         17.6551   14.3505   67.1178 C.3       1            -0.1261
      2 C2         16.4248   14.8699   66.4196 C.ar      1            -0.0155
      3 C3         15.2050   14.8528   67.0641 C.ar      1            -0.1364
      4 C4         14.0746   15.3296   66.4248 C.ar      1            -0.0755
      5 C5         14.1585   15.8263   65.1358 C.ar      1            -0.1409
      6 C6         15.3716   15.8493   64.4799 C.ar      1            -0.0551
      7 C7         16.5177   15.3749   65.1214 C.ar      1            -0.1348
      8 C8         17.8214   15.4016   64.4272 C.2       1             0.5101
      9 O1         18.2896   16.4587   64.0548 O.2       1            -0.4970
     10 O2         18.4910   14.2535   64.2072 O.3       1            -0.3310
     11 C9         19.3241   14.2004   63.0474 C.3       1             0.0220
     12 C10        20.7490   13.9413   63.4637 C.2       1             0.4005
     13 O3         21.0287   12.9302   64.0717 O.2       1            -0.4262
     14 C11        21.8012   14.9154   63.1324 C.ar      1            -0.1682
     15 C12        23.1146   14.4861   62.9159 C.ar      1            -0.0737
     16 C13        24.0928   15.4054   62.6063 C.ar      1            -0.1181
     17 C14        23.7823   16.7534   62.5082 C.ar      1            -0.0603
     18 C15        24.6487   17.9464   62.1880 C.3       1            -0.0895
     19 C16        23.8809   19.1467   62.7519 C.3       1            -0.1215
     20 C17        22.4338   18.6838   62.5518 C.3       1            -0.0842
     21 C18        22.4852   17.1855   62.7212 C.ar      1            -0.1089
     22 C19        21.4931   16.2744   63.0266 C.ar      1            -0.0431
     23 H1         17.3868   14.0008   68.1148 H         1             0.0791
     24 H2         18.0770   13.5250   66.5447 H         1             0.0642
     25 H3         18.3916   15.1500   67.1993 H         1             0.0919
     26 H4         15.1324   14.4658   68.0698 H         1             0.1338
     27 H5         13.1223   15.3139   66.9338 H         1             0.1312
     28 H6         13.2720   16.1964   64.6422 H         1             0.1330
     29 H7         15.4357   16.2372   63.4740 H         1             0.1405
     30 H8         18.9850   13.3974   62.3929 H         1             0.1065
     31 H9         19.2678   15.1504   62.5158 H         1             0.1064
     32 H10        23.3612   13.4374   62.9914 H         1             0.1349
     33 H11        25.1073   15.0746   62.4394 H         1             0.1306
     34 H12        25.6191   17.8531   62.6757 H         1             0.0870
     35 H13        24.7728   18.0474   61.1098 H         1             0.0811
     36 H14        24.1035   19.2944   63.8085 H         1             0.0808
     37 H15        24.0874   20.0501   62.1781 H         1             0.0750
     38 H16        21.7849   19.1293   63.3058 H         1             0.0840
     39 H17        22.0875   18.9413   61.5509 H         1             0.0790
     40 H18        20.4804   16.6127   63.1878 H         1             0.1343
@<TRIPOS>BOND
     1    1    2 1 
     2    1   23 1 
     3    1   24 1 
     4    1   25 1 
     5    2    7 ar
     6    2    3 ar
     7    3    4 ar
     8    3   26 1 
     9    4    5 ar
    10    4   27 1 
    11    5    6 ar
    12    5   28 1 
    13    6    7 ar
    14    6   29 1 
    15    7    8 1 
    16    8    9 2 
    17    8   10 1 
    18   10   11 1 
    19   11   12 1 
    20   11   30 1 
    21   11   31 1 
    22   12   13 2 
    23   12   14 1 
    24   14   22 ar
    25   14   15 ar
    26   15   16 ar
    27   15   32 1 
    28   16   17 ar
    29   16   33 1 
    30   17   21 ar
    31   17   18 1 
    32   18   19 1 
    33   18   34 1 
    34   18   35 1 
    35   19   20 1 
    36   19   36 1 
    37   19   37 1 
    38   20   21 1 
    39   20   38 1 
    40   20   39 1 
    41   21   22 ar
    42   22   40 1 
##########                 Name:             E2561316
##########          Protonation:                   73
##########               SMILES:   CC[NH+]1CCN(CC1)c2[nH]c(=O)cc(n2)c3ccc(cc3)C
##########            Long Name:   2-(4-ethylpiperazin-4-ium-1-yl)-4-(p-tolyl)-1H-pyrimidin-6-one
##########          FlexRecCode: 1
##########               Number:                  488
##########   Ligand Source File: /raidb/db2/rgc/leads-emolecules-300/leads-emolecules-3-aw-0000007.db2.gz
##########           GlobalRank: 1378
##########                 Rank:                    1
##########               Setnum:                   76
##########             Matchnum:                  472
##########                Cloud:                    1
##########        Electrostatic:           -20.406258
##########        Van der Waals:           -28.559631
##########  Ligand Polar Desolv:            11.632664
########## Ligand Apolar Desolv:            -4.997739
##########      Internal Energy:             0.000000
##########      Receptor Energy: 0.0
########## Receptor Desolvation:             0.000000
########## Receptor Hydrophobic:             0.000000
##########         Total Energy: -42.33
##########        Ligand Charge:             1.000000
##########            Arbitrary:    +999.9990
##########     heavy atom count:   22
##########           pose count:    1
##########        Ligand Energy:             0.000000
# num electro vdwattr vdwrepu polsolv apolsol rdesolv rhydroe totalscore fullpol fullapo
#   1    2.35   -0.75    0.11   -1.92   -0.06    0.00    0.00      -0.28   -5.94   -0.19
#   2    0.16   -0.55    0.03    0.18   -0.13    0.00    0.00      -0.31    0.56   -0.40
#   3    4.31   -0.80    0.04   -5.02    0.11    0.00    0.00      -1.35  -12.63    0.27
#   4   -5.21   -0.02    0.00    4.63    0.14    0.00    0.00      -0.46   17.31    0.53
#   5    0.34   -0.83    0.10   -0.01   -0.17    0.00    0.00      -0.56   -0.02   -0.38
#   6   -0.35   -1.40    0.99    1.07   -0.22    0.00    0.00       0.09    2.36   -0.48
#   7   -2.01   -1.86    0.53   -6.32    0.76    0.00    0.00      -8.90  -14.00    1.68
#   8    0.01   -1.63    0.62    0.79   -0.22    0.00    0.00      -0.43    1.70   -0.48
#   9    0.11   -0.85    0.09    0.08   -0.15    0.00    0.00      -0.73    0.21   -0.40
#  10    4.89   -1.82    0.47    5.05   -2.21    0.00    0.00       6.38   10.71   -4.68
#  11   -8.98   -2.36    0.97   -4.01    0.81    0.00    0.00     -13.57   -7.58    1.54
#  12    2.96   -1.86    0.31    1.43   -0.44    0.00    0.00       2.41    2.42   -0.74
#  13   -1.80   -2.36    0.88   -1.15   -0.26    0.00    0.00      -4.70   -1.93   -0.44
#  14    2.40   -1.89    0.33    1.39   -0.39    0.00    0.00       1.83    2.29   -0.65
#  15   -2.09   -2.58    0.51    0.42    0.30    0.00    0.00      -3.43    0.65    0.46
#  16   -2.67   -1.61    0.32   -4.29    0.91    0.00    0.00      -7.35   -7.89    1.67
#  17   -1.04   -2.35    0.73   -0.47   -0.25    0.00    0.00      -3.39   -0.76   -0.41
#  18   -0.71   -2.61    0.64   -0.38   -0.29    0.00    0.00      -3.35   -0.59   -0.44
#  19   -1.19   -2.74    0.78   -0.58   -0.29    0.00    0.00      -4.03   -0.91   -0.45
#  20   -0.68   -2.36    0.72   -0.40   -0.27    0.00    0.00      -2.98   -0.61   -0.41
#  21   -1.29   -1.49    0.31   -0.65   -0.13    0.00    0.00      -3.26   -0.99   -0.20
#  22   -1.58   -3.27    1.55   -0.78   -0.27    0.00    0.00      -4.36   -1.31   -0.45
#  23   -0.93   -3.07    1.04   -0.28   -0.27    0.00    0.00      -3.53   -0.47   -0.46
#  24   -0.99   -0.24    0.04    0.61   -0.07    0.00    0.00      -0.65    2.52   -0.28
#  25   -0.85   -0.14    0.01    0.20   -0.04    0.00    0.00      -0.83    1.31   -0.28
#  26   -1.20   -0.49    0.33    0.82   -0.07    0.00    0.00      -0.61    2.48   -0.22
#  27   -1.39   -0.13    0.01    0.56   -0.04    0.00    0.00      -0.99    4.36   -0.28
#  28   -2.94   -0.26    0.06    1.17   -0.06    0.00    0.00      -2.02    5.56   -0.28
#  29   -2.92   -0.27    0.02    2.14   -0.07    0.00    0.00      -1.10    6.30   -0.21
#  30   -1.49   -0.44    0.29    1.26   -0.08    0.00    0.00      -0.47    4.16   -0.28
#  31   -0.72   -1.14    4.52    1.62   -0.10    0.00    0.00       4.18    4.36   -0.28
#  32   -0.25   -0.44    0.17    0.96   -0.10    0.00    0.00       0.34    2.41   -0.24
#  33   -0.03   -0.93    0.99    2.61   -0.14    0.00    0.00       2.50    5.16   -0.28
#  34    0.34   -0.74    0.49    1.16   -0.09    0.00    0.00       1.16    2.70   -0.20
#  35   -0.72   -0.18    0.01    0.81   -0.05    0.00    0.00      -0.13    4.36   -0.28
#  36   -1.00   -0.53    0.32    2.34   -0.09    0.00    0.00       1.04    7.60   -0.28
#  37    0.47   -0.94    1.22    0.00   -0.11    0.00    0.00       0.64    0.00   -0.22
#  38    0.68   -0.02    0.00    2.31    0.14    0.00    0.00       3.10    7.12    0.43
#  39    0.60   -0.54    0.08    0.29   -0.13    0.00    0.00       0.30    0.50   -0.22
#  40    0.76   -0.66    0.16    0.43   -0.16    0.00    0.00       0.54    0.77   -0.28
#  41    0.73   -0.60    0.39    0.31   -0.14    0.00    0.00       0.69    0.64   -0.28
#  42    0.60   -0.43    0.08    0.40   -0.13    0.00    0.00       0.51    0.84   -0.28
#  43    0.85   -0.56    0.14    0.29   -0.16    0.00    0.00       0.56    0.50   -0.28
#  44    0.56   -1.28    2.49    1.11   -0.16    0.00    0.00       2.72    1.97   -0.28
#  45    1.53   -0.85    0.47    1.45   -0.16    0.00    0.00       2.45    2.50   -0.27
@<TRIPOS>MOLECULE
E2561316
   45    47     0     0     0
SMALL
USER_CHARGES


@<TRIPOS>ATOM
      1 C1         24.7346   17.5714   60.3170 C.3       1            -0.1897
      2 C2         24.2833   18.8830   60.9624 C.3       1            -0.0107
      3 N1         23.1537   18.6218   61.8646 N.4       1            -0.3856
      4 H1         22.8571   19.4876   62.2894 H         1             0.4245
      5 C3         22.0403   18.0480   61.0984 C.3       1            -0.0278
      6 C4         20.8234   17.8817   62.0145 C.3       1             0.1089
      7 N2         21.2266   17.0887   63.1861 N.pl3     1            -0.6133
      8 C5         22.4334   17.5004   63.9198 C.3       1             0.0898
      9 C6         23.5736   17.6830   62.9125 C.3       1            -0.0188
     10 C7         20.4988   15.9985   63.5828 C.2       1             0.6366
     11 N3         19.2366   16.1551   63.9209 N.2       1            -0.5759
     12 C8         18.4892   15.1150   64.3146 C.2       1             0.2676
     13 C9         19.0493   13.8475   64.3692 C.2       1            -0.3183
     14 C10        20.3956   13.6902   64.0068 C.2       1             0.5418
     15 O1         20.9236   12.5905   64.0418 O.2       1            -0.5226
     16 N4         21.0948   14.7755   63.6136 N.am      1            -0.6521
     17 C11        17.0703   15.3184   64.6906 C.ar      1            -0.0789
     18 C12        16.6342   14.9993   65.9762 C.ar      1            -0.0783
     19 C13        15.3118   15.1913   66.3205 C.ar      1            -0.1248
     20 C14        14.4194   15.6987   65.3933 C.ar      1            -0.0553
     21 C15        12.9765   15.9060   65.7758 C.3       1            -0.1248
     22 C16        14.8461   16.0171   64.1164 C.ar      1            -0.1322
     23 C17        16.1672   15.8349   63.7621 C.ar      1            -0.0658
     24 H2         25.5727   17.7654   59.6476 H         1             0.0820
     25 H3         25.0443   16.8720   61.0936 H         1             0.1086
     26 H4         23.9085   17.1422   59.7501 H         1             0.0815
     27 H5         25.1094   19.3122   61.5294 H         1             0.1302
     28 H6         23.9737   19.5825   60.1858 H         1             0.1333
     29 H7         21.7859   18.7133   60.2733 H         1             0.1501
     30 H8         22.3337   17.0753   60.7038 H         1             0.1368
     31 H9         20.4722   18.8614   62.3386 H         1             0.0999
     32 H10        20.0287   17.3637   61.4776 H         1             0.1498
     33 H11        22.2448   18.4416   64.4363 H         1             0.1100
     34 H12        22.7030   16.7304   64.6426 H         1             0.1218
     35 H13        23.8198   16.7216   62.4619 H         1             0.1370
     36 H14        24.4501   18.0791   63.4254 H         1             0.1501
     37 H15        18.4611   12.9984   64.6847 H         1             0.1615
     38 H16        22.0255   14.6841   63.3557 H         1             0.4082
     39 H17        17.3299   14.6024   66.7006 H         1             0.1322
     40 H18        14.9728   14.9445   67.3158 H         1             0.1321
     41 H19        12.4291   16.3095   64.9239 H         1             0.0779
     42 H20        12.5382   14.9526   66.0708 H         1             0.0710
     43 H21        12.9187   16.6058   66.6095 H         1             0.0722
     44 H22        14.1448   16.4129   63.3968 H         1             0.1285
     45 H23        16.5002   16.0876   62.7662 H         1             0.1311
@<TRIPOS>BOND
     1    1    2 1 
     2    1   24 1 
     3    1   25 1 
     4    1   26 1 
     5    2    3 1 
     6    2   27 1 
     7    2   28 1 
     8    3    4 1 
     9    3    9 1 
    10    3    5 1 
    11    5    6 1 
    12    5   29 1 
    13    5   30 1 
    14    6    7 1 
    15    6   31 1 
    16    6   32 1 
    17    7    8 1 
    18    7   10 1 
    19    8    9 1 
    20    8   33 1 
    21    8   34 1 
    22    9   35 1 
    23    9   36 1 
    24   10   16 1 
    25   10   11 2 
    26   11   12 1 
    27   12   13 2 
    28   12   17 1 
    29   13   14 1 
    30   13   37 1 
    31   14   15 2 
    32   14   16 am
    33   16   38 1 
    34   17   23 ar
    35   17   18 ar
    36   18   19 ar
    37   18   39 1 
    38   19   20 ar
    39   19   40 1 
    40   20   21 1 
    41   20   22 ar
    42   21   41 1 
    43   21   42 1 
    44   21   43 1 
    45   22   23 ar
    46   22   44 1 
    47   23   45 1 
##########                 Name:             E2067480
##########          Protonation:                   64
##########               SMILES:   c1cc(ccc1CN2CC[NH+](CC2)CCO)[N+](=O)[O-]
##########            Long Name:   2-[4-[(4-nitrophenyl)methyl]piperazin-1-ium-1-yl]ethanol
##########          FlexRecCode: 1
##########               Number:                  358
##########   Ligand Source File: /raidb/db2/rgc/leads-emolecules-300/leads-lt300-emolecules-1d-0000093.db2.gz
##########           GlobalRank: 1392
##########                 Rank:                    1
##########               Setnum:                   50
##########             Matchnum:                 3552
##########                Cloud:                    1
##########        Electrostatic:           -26.116055
##########        Van der Waals:           -22.241940
##########  Ligand Polar Desolv:             8.091838
########## Ligand Apolar Desolv:            -2.046858
##########      Internal Energy:             0.000000
##########      Receptor Energy: 0.0
########## Receptor Desolvation:             0.000000
########## Receptor Hydrophobic:             0.000000
##########         Total Energy: -42.31
##########        Ligand Charge:             1.000000
##########            Arbitrary:    +999.9990
##########     heavy atom count:   19
##########           pose count:    1
##########        Ligand Energy:             0.000000
# num electro vdwattr vdwrepu polsolv apolsol rdesolv rhydroe totalscore fullpol fullapo
#   1    3.67   -0.59    0.05   -3.38    0.39    0.00    0.00       0.14  -14.70    1.68
#   2   -0.45   -0.82    0.17    0.29   -0.04    0.00    0.00      -0.84    0.94   -0.14
#   3    0.30   -1.05    0.25   -0.03   -0.11    0.00    0.00      -0.64   -0.09   -0.32
#   4    9.43   -1.78    1.56   -3.84    0.15    0.00    0.00       5.52  -11.25    0.43
#   5  -17.78   -0.22    0.15    4.92    0.18    0.00    0.00     -12.75   14.49    0.52
#   6    0.06   -1.02    0.18    0.16   -0.17    0.00    0.00      -0.79    0.39   -0.42
#   7   -0.49   -1.10    0.21    0.21   -0.16    0.00    0.00      -1.32    0.51   -0.39
#   8    6.88   -1.06    0.14   -4.72    1.06    0.00    0.00       2.30  -14.33    3.21
#   9   -0.74   -0.62    0.04    0.74   -0.14    0.00    0.00      -0.71    2.13   -0.39
#  10    0.17   -1.18    0.16    0.07   -0.13    0.00    0.00      -0.91    0.19   -0.34
#  11    0.01   -1.44    0.27   -0.60   -0.19    0.00    0.00      -1.95   -1.38   -0.45
#  12   -0.25   -1.64    0.41   -0.40   -0.20    0.00    0.00      -2.08   -0.87   -0.45
#  13   -0.13   -1.69    0.48   -0.47   -0.38    0.00    0.00      -2.20   -0.87   -0.70
#  14   -0.02   -1.82    0.49   -0.41   -0.22    0.00    0.00      -1.97   -0.86   -0.45
#  15    0.26   -1.39    0.25   -0.62   -0.15    0.00    0.00      -1.64   -1.55   -0.37
#  16    0.11   -1.92    0.28    0.04    0.26    0.00    0.00      -1.23    0.06    0.42
#  17   -0.61   -2.98    0.85    0.05   -0.41    0.00    0.00      -3.10    0.07   -0.63
#  18   -0.77   -1.76    0.38   -0.04   -0.38    0.00    0.00      -2.57   -0.06   -0.63
#  19   -0.22   -0.63    0.09    0.01   -0.11    0.00    0.00      -0.86    0.04   -0.37
#  20    0.10   -0.57    0.08    0.06   -0.11    0.00    0.00      -0.43    0.21   -0.41
#  21   -1.64   -0.01    0.00    0.70    0.09    0.00    0.00      -0.86    9.97    1.24
#  22   -0.52   -0.15    0.01    0.43   -0.04    0.00    0.00      -0.26    2.73   -0.23
#  23   -0.61   -0.56    0.42    0.54   -0.09    0.00    0.00      -0.30    1.69   -0.28
#  24   -1.96   -0.30    0.11    1.11   -0.03    0.00    0.00      -1.07    5.03   -0.15
#  25   -3.91   -0.73    0.74    1.62   -0.10    0.00    0.00      -2.38    4.49   -0.28
#  26   -2.48   -0.27    0.04    1.43   -0.07    0.00    0.00      -1.35    5.46   -0.28
#  27   -3.99   -0.55    0.31    1.62   -0.11    0.00    0.00      -2.72    4.25   -0.28
#  28   -0.96   -0.30    0.05    0.89   -0.07    0.00    0.00      -0.39    2.67   -0.21
#  29   -3.44   -0.72    0.39    1.35   -0.13    0.00    0.00      -2.54    2.95   -0.28
#  30   -0.50   -0.26    0.07    0.46   -0.05    0.00    0.00      -0.28    2.42   -0.28
#  31   -0.99   -0.21    0.01    0.64   -0.07    0.00    0.00      -0.61    2.62   -0.27
#  32   -0.29   -0.32    0.09    1.00   -0.08    0.00    0.00       0.41    3.49   -0.28
#  33    1.70   -0.32    0.05    0.36   -0.10    0.00    0.00       1.70    1.01   -0.27
#  34   -0.01   -0.44    0.10    0.70   -0.12    0.00    0.00       0.23    1.61   -0.27
#  35   -0.48   -0.21    0.02    1.13   -0.06    0.00    0.00       0.39    4.88   -0.28
#  36   -0.51   -0.10    0.00    0.30   -0.02    0.00    0.00      -0.33    2.99   -0.22
#  37   -2.18   -0.45    0.23    0.60   -0.06    0.00    0.00      -1.86    2.11   -0.21
#  38   -1.52   -0.13    0.01    0.44   -0.03    0.00    0.00      -1.22    3.96   -0.28
#  39   -1.38   -0.14    0.01    0.73   -0.04    0.00    0.00      -0.83    4.76   -0.23
@<TRIPOS>MOLECULE
E2067480
   39    40     0     0     0
SMALL
USER_CHARGES


@<TRIPOS>ATOM
      1 O1         26.2614   22.2298   59.6024 O.3       1            -0.5796
      2 C1         24.9366   22.7066   59.3579 C.3       1             0.0470
      3 C2         23.9491   21.9465   60.2457 C.3       1            -0.0155
      4 N1         24.0179   20.5118   59.9375 N.4       1            -0.3819
      5 H1         24.1094   20.3862   58.9406 H         1             0.4368
      6 C3         22.7907   19.8522   60.4030 C.3       1            -0.0027
      7 C4         22.8550   18.3602   60.0690 C.3       1             0.0247
      8 N2         24.0282   17.7667   60.7253 N.3       1            -0.5328
      9 C5         23.8980   17.8224   62.1874 C.3       1             0.0901
     10 C6         23.0060   16.7014   62.6555 C.ar      1            -0.0461
     11 C7         21.6412   16.8987   62.7524 C.ar      1            -0.0920
     12 C8         20.8232   15.8704   63.1817 C.ar      1            -0.0508
     13 C9         21.3697   14.6449   63.5136 C.ar      1            -0.0388
     14 C10        22.7344   14.4474   63.4158 C.ar      1            -0.0528
     15 C11        23.5520   15.4743   62.9824 C.ar      1            -0.1183
     16 N3         20.4938   13.5442   63.9742 N.pl3     1             0.0254
     17 O2         20.9718   12.4723   64.2645 O.2       1            -0.1461
     18 O3         19.3002   13.7170   64.0601 O.3       1            -0.1490
     19 C12        25.2619   18.4300   60.2809 C.3       1             0.0163
     20 C13        25.1808   19.9214   60.6135 C.3       1            -0.0069
     21 H2         26.5565   22.3399   60.5166 H         1             0.4107
     22 H3         24.8856   23.7711   59.5865 H         1             0.0710
     23 H4         24.6806   22.5471   58.3105 H         1             0.0948
     24 H5         24.2052   22.1058   61.2931 H         1             0.1381
     25 H6         22.9387   22.3100   60.0593 H         1             0.1402
     26 H7         22.6965   19.9793   61.4814 H         1             0.1388
     27 H8         21.9283   20.2984   59.9078 H         1             0.1413
     28 H9         21.9504   17.8680   60.4259 H         1             0.0637
     29 H10        22.9380   18.2322   58.9897 H         1             0.1272
     30 H11        24.8822   17.7184   62.6442 H         1             0.0652
     31 H12        23.4621   18.7786   62.4772 H         1             0.1077
     32 H13        21.2142   17.8562   62.4931 H         1             0.1503
     33 H14        19.7569   16.0247   63.2581 H         1             0.1589
     34 H15        23.1616   13.4900   63.6754 H         1             0.1573
     35 H16        24.6178   15.3190   62.9024 H         1             0.1428
     36 H17        26.1171   17.9889   60.7927 H         1             0.0638
     37 H18        25.3762   18.3029   59.2044 H         1             0.1243
     38 H19        26.0894   20.4191   60.2745 H         1             0.1414
     39 H20        25.0777   20.0484   61.6912 H         1             0.1356
@<TRIPOS>BOND
     1    1    2 1 
     2    1   21 1 
     3    2    3 1 
     4    2   22 1 
     5    2   23 1 
     6    3    4 1 
     7    3   24 1 
     8    3   25 1 
     9    4    5 1 
    10    4   20 1 
    11    4    6 1 
    12    6    7 1 
    13    6   26 1 
    14    6   27 1 
    15    7    8 1 
    16    7   28 1 
    17    7   29 1 
    18    8    9 1 
    19    8   19 1 
    20    9   10 1 
    21    9   30 1 
    22    9   31 1 
    23   10   15 ar
    24   10   11 ar
    25   11   12 ar
    26   11   32 1 
    27   12   13 ar
    28   12   33 1 
    29   13   14 ar
    30   13   16 1 
    31   14   15 ar
    32   14   34 1 
    33   15   35 1 
    34   16   17 2 
    35   16   18 1 
    36   19   20 1 
    37   19   36 1 
    38   19   37 1 
    39   20   38 1 
    40   20   39 1 
##########                 Name:            E36353635
##########          Protonation:                   62
##########               SMILES:   C[C@H](C[NH+]1CCN(CC1)Cc2nc(no2)c3ccoc3)O
##########            Long Name:   4-[[3-(3-furyl)-1,2,4-oxadiazol-5-yl]methyl]piperazin-1-ium-1-yl]propan-2-ol
##########          FlexRecCode: 1
##########               Number:                   78
##########   Ligand Source File: /raidb/db2/rgc/leads-emolecules-300/leads-emolecules-2e-0000406.db2.gz
##########           GlobalRank: 1400
##########                 Rank:                    1
##########               Setnum:                   53
##########             Matchnum:                  748
##########                Cloud:                    1
##########        Electrostatic:           -27.613338
##########        Van der Waals:           -22.509476
##########  Ligand Polar Desolv:             7.894031
########## Ligand Apolar Desolv:            -0.058816
##########      Internal Energy:             0.000000
##########      Receptor Energy: 0.0
########## Receptor Desolvation:             0.000000
########## Receptor Hydrophobic:             0.000000
##########         Total Energy: -42.29
##########        Ligand Charge:             1.000000
##########            Arbitrary:    +999.9990
##########     heavy atom count:   21
##########           pose count:    1
##########        Ligand Energy:             0.000000
# num electro vdwattr vdwrepu polsolv apolsol rdesolv rhydroe totalscore fullpol fullapo
#   1    0.94   -0.51    0.03   -1.31   -0.06    0.00    0.00      -0.91   -4.41   -0.20
#   2   -1.02   -0.87    0.18    0.80   -0.04    0.00    0.00      -0.95    2.56   -0.14
#   3    3.45   -1.98    0.80   -5.12    0.58    0.00    0.00      -2.27  -14.32    1.63
#   4    0.68   -0.58    0.05   -0.32   -0.07    0.00    0.00      -0.23   -1.17   -0.27
#   5    7.94   -1.30    0.62   -3.51    0.14    0.00    0.00       3.88  -11.03    0.43
#   6  -13.54   -0.10    0.02    4.84    0.16    0.00    0.00      -8.61   15.21    0.51
#   7    0.16   -1.13    0.29    0.03   -0.16    0.00    0.00      -0.81    0.08   -0.41
#   8   -0.60   -0.97    0.13    0.24   -0.17    0.00    0.00      -1.37    0.55   -0.39
#   9    8.28   -1.13    0.13   -4.73    1.18    0.00    0.00       3.72  -12.91    3.21
#  10   -1.24   -0.62    0.03    1.02   -0.16    0.00    0.00      -0.97    2.72   -0.43
#  11   -0.92   -1.24    0.13    1.63   -0.26    0.00    0.00      -0.66    3.86   -0.61
#  12    0.26   -1.48    0.46   -2.18    1.28    0.00    0.00      -1.67   -5.39    3.15
#  13    1.60   -1.63    0.38    0.80   -1.01    0.00    0.00       0.14    1.77   -2.23
#  14   -3.69   -2.99    2.30   -0.67    0.62    0.00    0.00      -4.43   -1.42    1.31
#  15   -0.17   -2.22    1.34   -0.40   -0.07    0.00    0.00      -1.52   -0.86   -0.16
#  16   -0.76   -1.63    0.26   -0.79   -0.26    0.00    0.00      -3.18   -1.35   -0.44
#  17    0.18   -2.23    0.48    0.50   -0.17    0.00    0.00      -1.24    0.81   -0.27
#  18   -0.40   -3.02    0.86   -1.02    0.14    0.00    0.00      -3.43   -1.53    0.21
#  19   -0.03   -3.95    2.74   -0.08   -0.18    0.00    0.00      -1.49   -0.12   -0.28
#  20   -1.10   -2.09    0.53   -0.84   -0.31    0.00    0.00      -3.80   -1.40   -0.51
#  21   -0.32   -0.96    0.27    0.04   -0.12    0.00    0.00      -1.10    0.13   -0.37
#  22    0.03   -0.62    0.13    0.19   -0.11    0.00    0.00      -0.39    0.71   -0.42
#  23   -0.15   -0.16    0.01    0.04   -0.05    0.00    0.00      -0.31    0.22   -0.28
#  24   -0.20   -0.12    0.00    0.23   -0.03    0.00    0.00      -0.12    1.91   -0.28
#  25   -0.39   -0.17    0.01    0.27   -0.05    0.00    0.00      -0.32    1.56   -0.28
#  26   -2.75   -0.57    0.47    1.06   -0.06    0.00    0.00      -1.86    3.52   -0.21
#  27   -2.06   -0.02    0.00    2.93    0.33    0.00    0.00       1.18   10.78    1.22
#  28   -0.95   -0.10    0.00    0.55   -0.03    0.00    0.00      -0.52    5.70   -0.28
#  29   -1.17   -0.24    0.06    0.90   -0.03    0.00    0.00      -0.48    4.73   -0.15
#  30   -2.51   -0.50    0.37    1.34   -0.06    0.00    0.00      -1.35    5.08   -0.22
#  31   -4.13   -0.60    0.33    1.55   -0.11    0.00    0.00      -2.96    4.09   -0.28
#  32   -1.17   -0.25    0.02    1.03   -0.07    0.00    0.00      -0.45    3.15   -0.22
#  33   -3.90   -0.60    0.28    1.30   -0.12    0.00    0.00      -3.03    3.14   -0.28
#  34   -0.74   -0.17    0.01    0.48   -0.04    0.00    0.00      -0.46    3.12   -0.28
#  35   -1.22   -0.24    0.02    0.80   -0.07    0.00    0.00      -0.72    3.07   -0.28
#  36    0.36   -0.50    0.14    1.99   -0.14    0.00    0.00       1.85    3.98   -0.28
#  37   -0.53   -1.66    2.91    1.90   -0.17    0.00    0.00       2.45    3.10   -0.28
#  38    1.45   -0.35    0.05    0.25   -0.11    0.00    0.00       1.29    0.63   -0.28
#  39   -0.79   -0.17    0.01    0.58   -0.04    0.00    0.00      -0.41    2.93   -0.21
#  40   -3.41   -1.02    1.57    0.34   -0.08    0.00    0.00      -2.60    0.91   -0.22
#  41   -1.72   -0.16    0.03    0.50   -0.04    0.00    0.00      -1.39    3.64   -0.28
#  42   -1.37   -0.13    0.01    0.73   -0.04    0.00    0.00      -0.79    5.65   -0.28
@<TRIPOS>MOLECULE
E36353635
   42    44     0     0     0
SMALL
USER_CHARGES


@<TRIPOS>ATOM
      1 C1         24.8974   24.5913   60.2706 C.3       1            -0.1897
      2 C2         24.2563   23.2757   59.8244 C.3       1             0.0839
      3 O1         24.4446   23.1071   58.4179 O.3       1            -0.5559
      4 C3         24.9109   22.1109   60.5699 C.3       1            -0.0590
      5 N1         24.2953   20.8476   60.1414 N.4       1            -0.3800
      6 H1         24.1317   20.8743   59.1461 H         1             0.4336
      7 C4         23.0177   20.6637   60.8424 C.3       1            -0.0070
      8 C5         22.3688   19.3554   60.3855 C.3       1             0.0277
      9 N2         23.2738   18.2361   60.6814 N.3       1            -0.5356
     10 C6         23.4621   18.0800   62.1299 C.3       1             0.1408
     11 C7         22.2823   17.3464   62.7137 C.2       1             0.2877
     12 N3         22.1809   16.0551   62.8505 N.2       1            -0.5338
     13 C8         20.9965   15.7423   63.4068 C.2       1             0.3335
     14 N4         20.3325   16.8505   63.6281 N.2       1            -0.3158
     15 O2         21.1637   17.9127   63.1847 O.3       1            -0.0878
     16 C9         20.5214   14.3721   63.7172 C.2       1            -0.1557
     17 C10        21.1861   13.2060   63.5058 C.2       1             0.0520
     18 O3         20.4125   12.1950   63.9231 O.3       1            -0.1686
     19 C11        19.2488   12.6547   64.4076 C.2       1            -0.0200
     20 C12        19.2386   13.9953   64.3224 C.2       1            -0.1835
     21 C13        24.5628   18.4173   59.9994 C.3       1             0.0183
     22 C14        25.1965   19.7320   60.4592 C.3       1            -0.0017
     23 H2         24.7538   24.7199   61.3435 H         1             0.0888
     24 H3         25.9639   24.5701   60.0467 H         1             0.0783
     25 H4         24.4311   25.4212   59.7396 H         1             0.0724
     26 H5         23.1897   23.2970   60.0483 H         1             0.1226
     27 H6         25.3720   23.0793   58.1459 H         1             0.3908
     28 H7         25.9775   22.0897   60.3459 H         1             0.1364
     29 H8         24.7672   22.2394   61.6427 H         1             0.1380
     30 H9         23.1953   20.6252   61.9171 H         1             0.1418
     31 H10        22.3543   21.4976   60.6135 H         1             0.1440
     32 H11        21.4271   19.2118   60.9152 H         1             0.0685
     33 H12        22.1806   19.3975   59.3128 H         1             0.1325
     34 H13        24.3729   17.5119   62.3188 H         1             0.1001
     35 H14        23.5443   19.0630   62.5936 H         1             0.1312
     36 H15        22.1713   13.1103   63.0738 H         1             0.2171
     37 H16        18.4512   12.0456   64.8065 H         1             0.2164
     38 H17        18.4465   14.6604   64.6331 H         1             0.1619
     39 H18        25.2253   17.5878   60.2466 H         1             0.0711
     40 H19        24.4032   18.4473   58.9215 H         1             0.1253
     41 H20        26.1474   19.8757   59.9461 H         1             0.1413
     42 H21        25.3659   19.6970   61.5353 H         1             0.1385
@<TRIPOS>BOND
     1    1    2 1 
     2    1   23 1 
     3    1   24 1 
     4    1   25 1 
     5    2    3 1 
     6    2    4 1 
     7    2   26 1 
     8    3   27 1 
     9    4    5 1 
    10    4   28 1 
    11    4   29 1 
    12    5    6 1 
    13    5   22 1 
    14    5    7 1 
    15    7    8 1 
    16    7   30 1 
    17    7   31 1 
    18    8    9 1 
    19    8   32 1 
    20    8   33 1 
    21    9   10 1 
    22    9   21 1 
    23   10   11 1 
    24   10   34 1 
    25   10   35 1 
    26   11   15 1 
    27   11   12 2 
    28   12   13 1 
    29   13   14 2 
    30   13   16 1 
    31   14   15 1 
    32   16   20 1 
    33   16   17 2 
    34   17   18 1 
    35   17   36 1 
    36   18   19 1 
    37   19   20 2 
    38   19   37 1 
    39   20   38 1 
    40   21   22 1 
    41   21   39 1 
    42   21   40 1 
    43   22   41 1 
    44   22   42 1 
##########                 Name:            E46025516
##########          Protonation:                   36
##########               SMILES:   CCC[C@H]1CN(C[C@H]1[NH3+])C(=O)c2c[nH]c3ncnn3c2=O
##########            Long Name:   ,2,4]triazolo[1,5-a]pyrimidine-6-carbonyl)-4-propyl-pyrrolidin-3-yl]ammonium
##########          FlexRecCode: 1
##########               Number:                  696
##########   Ligand Source File: /raidb/db2/rgc/leads-emolecules-300/leads-emolecules-3-co-0000005.db2.gz
##########           GlobalRank: 1422
##########                 Rank:                    1
##########               Setnum:                    7
##########             Matchnum:                 1081
##########                Cloud:                    1
##########        Electrostatic:           -23.781616
##########        Van der Waals:           -26.711578
##########  Ligand Polar Desolv:            10.778707
########## Ligand Apolar Desolv:            -2.549191
##########      Internal Energy:             0.000000
##########      Receptor Energy: 0.0
########## Receptor Desolvation:             0.000000
########## Receptor Hydrophobic:             0.000000
##########         Total Energy: -42.26
##########        Ligand Charge:             1.000000
##########            Arbitrary:    +999.9990
##########     heavy atom count:   21
##########           pose count:    1
##########        Ligand Energy:             0.000000
# num electro vdwattr vdwrepu polsolv apolsol rdesolv rhydroe totalscore fullpol fullapo
#   1    0.17   -0.60    0.12   -0.76   -0.05    0.00    0.00      -1.12   -3.10   -0.19
#   2    0.63   -0.97    0.20   -0.98   -0.08    0.00    0.00      -1.19   -2.93   -0.25
#   3    1.22   -0.47    0.03   -0.98   -0.04    0.00    0.00      -0.25   -3.69   -0.15
#   4    2.00   -0.84    0.16   -0.96   -0.06    0.00    0.00       0.29   -2.92   -0.19
#   5   -1.12   -0.75    0.12    0.61   -0.15    0.00    0.00      -1.29    1.76   -0.42
#   6    5.23   -1.00    0.06   -4.30    0.79    0.00    0.00       0.78  -11.86    2.17
#   7   -1.02   -0.80    0.09    0.54   -0.17    0.00    0.00      -1.35    1.62   -0.50
#   8   -0.23   -0.69    0.11    0.85   -0.12    0.00    0.00      -0.09    2.65   -0.38
#   9    9.16   -0.83    0.25   -5.99    0.16    0.00    0.00       2.76  -23.92    0.64
#  10   -9.03   -0.05    0.00    4.19    0.10    0.00    0.00      -4.78   19.58    0.47
#  11   -5.09   -0.01    0.00    2.64    0.08    0.00    0.00      -2.37   19.84    0.59
#  12   -3.78   -0.01    0.00    1.76    0.04    0.00    0.00      -1.99   19.82    0.47
#  13   -2.35   -1.92    0.44    2.97   -0.25    0.00    0.00      -1.10    7.14   -0.59
#  14    1.13   -5.30    4.27   -1.66    0.20    0.00    0.00      -1.36   -3.41    0.42
#  15    0.18   -1.63    0.32   -1.75   -0.13    0.00    0.00      -3.02   -4.18   -0.32
#  16   -0.32   -1.80    0.50    2.62   -0.40    0.00    0.00       0.60    6.16   -0.95
#  17    0.68   -2.26    0.67   -4.11    0.51    0.00    0.00      -4.51   -8.40    1.04
#  18    1.09   -2.20    0.54    2.37   -2.85    0.00    0.00      -1.06    4.25   -5.11
#  19   -2.73   -3.65    1.41   -2.46    1.45    0.00    0.00      -5.97   -3.83    2.26
#  20    0.71   -2.75    0.62    0.95   -2.18    0.00    0.00      -2.66    1.45   -3.35
#  21   -1.35   -1.72    0.21   -0.45    0.81    0.00    0.00      -2.50   -0.75    1.34
#  22   -1.39   -1.65    0.31   -0.81    0.69    0.00    0.00      -2.85   -1.45    1.22
#  23    1.89   -1.71    0.43    0.73   -0.29    0.00    0.00       1.05    1.66   -0.66
#  24   -3.44   -2.07    0.76    0.57    0.20    0.00    0.00      -3.98    1.22    0.43
#  25    0.04   -0.45    0.48    0.27   -0.07    0.00    0.00       0.28    1.16   -0.28
#  26   -0.03   -0.09    0.00    0.15   -0.03    0.00    0.00       0.01    1.62   -0.28
#  27   -0.10   -0.10    0.00   -0.02   -0.03    0.00    0.00      -0.25   -0.25   -0.28
#  28   -0.41   -0.58    0.25    0.11   -0.10    0.00    0.00      -0.73    0.29   -0.28
#  29   -0.35   -0.38    0.10    0.40   -0.09    0.00    0.00      -0.32    1.17   -0.26
#  30   -0.54   -0.12    0.01    0.58   -0.03    0.00    0.00      -0.10    5.44   -0.24
#  31   -0.57   -0.10    0.00    0.44   -0.02    0.00    0.00      -0.24    4.72   -0.22
#  32   -2.92   -0.72    0.63    0.49   -0.10    0.00    0.00      -2.62    1.35   -0.28
#  33   -1.36   -0.26    0.04    0.21   -0.07    0.00    0.00      -1.43    0.76   -0.25
#  34   -0.77   -0.33    0.14    1.17   -0.06    0.00    0.00       0.15    4.92   -0.26
#  35   -1.52   -0.50    0.24    0.38   -0.08    0.00    0.00      -1.48    1.27   -0.27
#  36   -0.71   -0.29    0.07    1.30   -0.06    0.00    0.00       0.30    5.72   -0.27
#  37   -3.89   -0.29    0.05    1.29   -0.08    0.00    0.00      -2.90    4.66   -0.28
#  38   -0.51   -0.30    0.06    2.20   -0.07    0.00    0.00       1.38    8.89   -0.28
#  39   -1.98   -0.05    0.00    4.36    0.26    0.00    0.00       2.58   10.20    0.60
#  40   -0.42   -0.96    0.74    1.89   -0.18    0.00    0.00       1.08    2.99   -0.28
@<TRIPOS>MOLECULE
E46025516
   40    42     0     0     0
SMALL
USER_CHARGES


@<TRIPOS>ATOM
      1 C1         27.6557   16.1023   59.9440 C.3       1            -0.1603
      2 C2         26.2453   16.5907   59.6071 C.3       1            -0.1234
      3 C3         25.8956   17.7889   60.4918 C.3       1            -0.1382
      4 C4         24.4854   18.2773   60.1549 C.3       1            -0.1213
      5 C5         23.4283   17.5678   61.0124 C.3       1             0.0973
      6 N1         23.7073   18.1734   62.3139 N.am      1            -0.6194
      7 C6         24.1693   19.5524   62.1496 C.3       1             0.0930
      8 C7         24.2663   19.7285   60.6256 C.3       1             0.0125
      9 N2         25.4114   20.5759   60.2665 N.4       1            -0.6316
     10 H1         25.5295   20.5747   59.2644 H         1             0.4401
     11 H2         25.2448   21.5189   60.5843 H         1             0.4396
     12 H3         26.2463   20.2160   60.7040 H         1             0.4339
     13 C8         23.5597   17.5490   63.4990 C.2       1             0.6336
     14 O1         23.8178   18.1367   64.5324 O.2       1            -0.4873
     15 C9         23.0865   16.1572   63.5431 C.2       1            -0.3210
     16 C10        23.9822   15.1039   63.5077 C.2       1             0.2459
     17 N3         23.5267   13.8365   63.5491 N.pl3     1            -0.5626
     18 C11        22.1800   13.5622   63.6264 C.2       1             0.4871
     19 N4         21.5184   12.4228   63.6775 N.2       1            -0.5234
     20 C12        20.2099   12.6624   63.7461 C.2       1             0.2555
     21 N5         20.0043   13.9534   63.7406 N.2       1            -0.2713
     22 N6         21.2632   14.5657   63.6637 N.am      1            -0.3732
     23 C13        21.6528   15.8538   63.6318 C.2       1             0.5855
     24 O2         20.8311   16.7506   63.6707 O.2       1            -0.4600
     25 H4         27.9049   15.2486   59.3139 H         1             0.0575
     26 H5         28.3704   16.9058   59.7666 H         1             0.0577
     27 H6         27.6964   15.8046   60.9918 H         1             0.0657
     28 H7         26.2047   16.8884   58.5594 H         1             0.0736
     29 H8         25.5305   15.7872   59.7845 H         1             0.0718
     30 H9         25.9364   17.4912   61.5395 H         1             0.0772
     31 H10        26.6104   18.5925   60.3144 H         1             0.0741
     32 H11        24.2740   18.1686   59.0911 H         1             0.1228
     33 H12        22.4194   17.8040   60.6736 H         1             0.0980
     34 H13        23.5927   16.4905   61.0332 H         1             0.0936
     35 H14        23.4464   20.2512   62.5706 H         1             0.1191
     36 H15        25.1465   19.6866   62.6135 H         1             0.0958
     37 H16        23.3392   20.1341   60.2202 H         1             0.1603
     38 H17        25.0431   15.2967   63.4468 H         1             0.2048
     39 H18        24.1606   13.1027   63.5236 H         1             0.4520
     40 H19        19.4390   11.9078   63.7982 H         1             0.2451
@<TRIPOS>BOND
     1    1    2 1 
     2    1   25 1 
     3    1   26 1 
     4    1   27 1 
     5    2    3 1 
     6    2   28 1 
     7    2   29 1 
     8    3    4 1 
     9    3   30 1 
    10    3   31 1 
    11    4    8 1 
    12    4    5 1 
    13    4   32 1 
    14    5    6 1 
    15    5   33 1 
    16    5   34 1 
    17    6    7 1 
    18    6   13 am
    19    7    8 1 
    20    7   35 1 
    21    7   36 1 
    22    8    9 1 
    23    8   37 1 
    24    9   10 1 
    25    9   11 1 
    26    9   12 1 
    27   13   14 2 
    28   13   15 1 
    29   15   23 1 
    30   15   16 2 
    31   16   17 1 
    32   16   38 1 
    33   17   18 1 
    34   17   39 1 
    35   18   22 1 
    36   18   19 2 
    37   19   20 1 
    38   20   21 2 
    39   20   40 1 
    40   21   22 1 
    41   22   23 am
    42   23   24 2 
##########                 Name:             E5787451
##########          Protonation:                   47
##########               SMILES:   c1ccn(c1)c2[nH+]/c(=N/c3cccc(c3)Cl)/[n-]cn2
##########            Long Name:   lorophenyl)-4-pyrrol-1-yl-5-aza-3-azonia-1-azanidacyclohexa-3,5-dien-2-imine
##########          FlexRecCode: 1
##########               Number:                  831
##########   Ligand Source File: /raidb/db2/rgc/leads-emolecules-300/leads-emolecules-lt300-1f-0000145.db2.gz
##########           GlobalRank: 1500
##########                 Rank:                    1
##########               Setnum:                    3
##########             Matchnum:                 2788
##########                Cloud:                    1
##########        Electrostatic:            -7.044084
##########        Van der Waals:           -32.010193
##########  Ligand Polar Desolv:             4.171485
########## Ligand Apolar Desolv:            -7.261075
##########      Internal Energy:             0.000000
##########      Receptor Energy: 0.0
########## Receptor Desolvation:             0.000000
########## Receptor Hydrophobic:             0.000000
##########         Total Energy: -42.14
##########        Ligand Charge:             0.000000
##########            Arbitrary:    +999.9990
##########     heavy atom count:   19
##########           pose count:    1
##########        Ligand Energy:             0.000000
# num electro vdwattr vdwrepu polsolv apolsol rdesolv rhydroe totalscore fullpol fullapo
#   1   -0.76   -4.23    1.69    0.22   -0.64    0.00    0.00      -3.72    0.34   -0.99
#   2   -0.25   -2.63    1.05    0.11   -0.19    0.00    0.00      -1.90    0.18   -0.30
#   3   -1.70   -2.47    0.67    0.59   -0.29    0.00    0.00      -3.20    0.92   -0.45
#   4    1.86   -2.28    0.38   -0.53   -0.42    0.00    0.00      -1.00   -0.83   -0.65
#   5   -0.59   -3.51    0.93    0.37   -0.26    0.00    0.00      -3.05    0.56   -0.39
#   6    0.07   -4.91    2.27    0.13   -0.32    0.00    0.00      -2.77    0.19   -0.47
#   7   -0.56   -3.70    1.36    0.27   -0.30    0.00    0.00      -2.93    0.42   -0.46
#   8   -7.96   -2.49    0.81    1.93    1.20    0.00    0.00      -6.51    3.31    2.06
#   9    4.67   -2.01    0.59   -0.81   -2.56    0.00    0.00      -0.11   -1.47   -4.64
#  10   -2.72   -2.69    1.21    0.66    0.95    0.00    0.00      -2.57    1.12    1.61
#  11    1.17   -3.16    1.68    0.48   -2.05    0.00    0.00      -1.88    0.74   -3.18
#  12   -2.24   -2.22    0.37   -0.47    1.25    0.00    0.00      -3.31   -0.77    2.03
#  13    2.09   -1.73    0.44    0.49   -2.48    0.00    0.00      -1.18    0.90   -4.57
#  14   -3.97   -1.83    0.50   -0.20    0.51    0.00    0.00      -5.00   -0.41    1.02
#  15    3.30   -0.03    0.00    0.39    0.18    0.00    0.00       3.84    1.19    0.53
#  16    0.24   -1.80    0.91   -0.43    0.39    0.00    0.00      -0.69   -0.99    0.90
#  17    0.12   -1.84    1.72   -0.06   -0.33    0.00    0.00      -0.39   -0.17   -0.91
#  18    0.86   -1.24    0.36   -0.20   -0.18    0.00    0.00      -0.40   -0.59   -0.51
#  19    0.76   -1.20    0.16   -0.23   -0.20    0.00    0.00      -0.71   -0.60   -0.51
#  20   -0.10   -1.79    0.45    0.00   -0.42    0.00    0.00      -1.85    0.00   -0.93
#  21    2.37   -0.53    0.14   -0.41   -0.14    0.00    0.00       1.43   -0.80   -0.28
#  22    0.59   -1.05    0.68   -0.29   -0.15    0.00    0.00      -0.23   -0.47   -0.24
#  23   -1.12   -1.78    1.83    0.14   -0.20    0.00    0.00      -1.12    0.20   -0.28
#  24    0.47   -0.94    0.48   -0.08   -0.17    0.00    0.00      -0.24   -0.13   -0.28
#  25   -0.34   -1.25    1.40    1.12   -0.18    0.00    0.00       0.75    1.78   -0.28
#  26   -0.70   -0.28    0.10    0.31   -0.06    0.00    0.00      -0.64    1.31   -0.27
#  27   -1.36   -0.17    0.01    0.18   -0.05    0.00    0.00      -1.39    1.01   -0.28
#  28   -0.63   -0.17    0.01    0.20   -0.06    0.00    0.00      -0.65    0.92   -0.28
#  29   -0.64   -0.52    0.23    0.32   -0.11    0.00    0.00      -0.72    0.79   -0.28
@<TRIPOS>MOLECULE
E5787451
   29    31     0     0     0
SMALL
USER_CHARGES


@<TRIPOS>ATOM
      1 Cl1        13.5163   15.6457   65.1321 Cl        1            -0.0719
      2 C1         15.0810   15.2945   65.7970 C.ar      1            -0.0227
      3 C2         16.2191   15.7257   65.1453 C.ar      1            -0.1123
      4 C3         17.4771   15.4421   65.6828 C.ar      1             0.1517
      5 C4         17.5735   14.7229   66.8774 C.ar      1            -0.1172
      6 C5         16.4283   14.2984   67.5175 C.ar      1            -0.0963
      7 C6         15.1849   14.5870   66.9830 C.ar      1            -0.1271
      8 N1         18.6080   15.8654   65.0431 N.2       1            -0.5553
      9 C7         19.5046   14.9835   64.6312 C.2       1             0.5325
     10 N2         19.3041   13.6346   64.8376 N.2       1            -0.5787
     11 C8         20.2377   12.7569   64.4059 C.2       1             0.4006
     12 N3         21.3142   13.1919   63.8008 N.2       1            -0.5922
     13 C9         21.5095   14.5016   63.6000 C.cat     1             0.6696
     14 N4         20.6186   15.3894   64.0020 N.pl3     1            -0.5901
     15 H1         20.7709   16.3346   63.8459 H         1             0.4328
     16 N5         22.6600   14.9305   62.9560 N.pl3     1            -0.4156
     17 C10        22.7724   16.0578   62.1879 C.2       1            -0.0347
     18 C11        24.0390   16.1340   61.7363 C.2       1            -0.1451
     19 C12        24.7379   15.0167   62.2404 C.2       1            -0.1756
     20 C13        23.8748   14.3010   62.9867 C.2       1             0.0330
     21 H2         16.1371   16.2806   64.2224 H         1             0.1322
     22 H3         18.5429   14.5000   67.2982 H         1             0.1259
     23 H4         16.5018   13.7423   68.4406 H         1             0.1303
     24 H5         14.2913   14.2557   67.4911 H         1             0.1311
     25 H6         20.0955   11.6976   64.5604 H         1             0.2228
     26 H7         21.9820   16.7638   61.9797 H         1             0.1754
     27 H8         24.4456   16.9089   61.1033 H         1             0.1568
     28 H9         25.7769   14.7805   62.0635 H         1             0.1576
     29 H10        24.1012   13.3870   63.5155 H         1             0.1826
@<TRIPOS>BOND
     1    1    2 1 
     2    2    7 ar
     3    2    3 ar
     4    3    4 ar
     5    3   21 1 
     6    4    5 ar
     7    4    8 1 
     8    5    6 ar
     9    5   22 1 
    10    6    7 ar
    11    6   23 1 
    12    7   24 1 
    13    8    9 2 
    14    9   14 1 
    15    9   10 1 
    16   10   11 1 
    17   11   12 2 
    18   11   25 1 
    19   12   13 1 
    20   13   14 2 
    21   13   16 1 
    22   14   15 1 
    23   16   20 1 
    24   16   17 1 
    25   17   18 2 
    26   17   26 1 
    27   18   19 1 
    28   18   27 1 
    29   19   20 2 
    30   19   28 1 
    31   20   29 1 
##########                 Name:            E24353083
##########          Protonation:                   17
##########               SMILES:   COc1ccc(cc1Cl)NC(=O)c2ccc([nH+]c2)NN
##########            Long Name:   N-(3-chloro-4-methoxy-phenyl)-6-hydrazino-pyridin-1-ium-3-carboxamide
##########          FlexRecCode: 1
##########               Number:                  269
##########   Ligand Source File: /raidb/db2/rgc/leads-emolecules-300/leads-emolecules-2f-0000158.db2.gz
##########           GlobalRank: 1512
##########                 Rank:                    1
##########               Setnum:                    5
##########             Matchnum:                 6904
##########                Cloud:                    1
##########        Electrostatic:           -19.740822
##########        Van der Waals:           -24.767637
##########  Ligand Polar Desolv:             4.074853
########## Ligand Apolar Desolv:            -1.691246
##########      Internal Energy:             0.000000
##########      Receptor Energy: 0.0
########## Receptor Desolvation:             0.000000
########## Receptor Hydrophobic:             0.000000
##########         Total Energy: -42.12
##########        Ligand Charge:             1.000000
##########            Arbitrary:    +999.9990
##########     heavy atom count:   20
##########           pose count:    1
##########        Ligand Energy:             0.000000
# num electro vdwattr vdwrepu polsolv apolsol rdesolv rhydroe totalscore fullpol fullapo
#   1    0.07   -1.93    0.43    0.05    0.02    0.00    0.00      -1.35    0.08    0.03
#   2   -1.29   -1.76    0.34   -0.83    0.54    0.00    0.00      -3.00   -1.36    0.88
#   3    0.46   -1.72    0.37    0.16   -0.16    0.00    0.00      -0.88    0.31   -0.31
#   4   -0.05   -1.79    0.44   -0.83   -0.20    0.00    0.00      -2.43   -1.77   -0.42
#   5    0.21   -1.34    0.22   -0.37   -0.18    0.00    0.00      -1.46   -0.94   -0.46
#   6   -0.35   -1.18    0.15    0.61   -0.27    0.00    0.00      -1.04    1.53   -0.68
#   7    5.53   -0.93    0.04   -4.09    0.61    0.00    0.00       1.17  -10.91    1.64
#   8   -8.09   -1.02    0.06    3.77   -0.26    0.00    0.00      -5.54    9.14   -0.63
#   9    6.93   -1.12    0.07   -2.96    0.16    0.00    0.00       3.08   -6.26    0.34
#  10    3.78   -1.24    0.16   -1.85   -0.15    0.00    0.00       0.71   -4.99   -0.41
#  11   -0.91   -1.00    0.20    0.44   -0.13    0.00    0.00      -1.40    1.53   -0.46
#  12    2.69   -1.12    0.42   -1.27   -0.12    0.00    0.00       0.60   -4.88   -0.46
#  13   -6.75   -1.48    0.46    3.98   -0.64    0.00    0.00      -4.43   12.77   -2.06
#  14    3.54   -0.99    0.10   -4.30    0.21    0.00    0.00      -1.43  -14.00    0.68
#  15    4.03   -1.03    0.12   -5.32    0.12    0.00    0.00      -2.07  -16.57    0.37
#  16   12.54   -3.50    3.40   -4.80    0.36    0.00    0.00       7.99  -12.94    0.96
#  17  -14.83   -0.16    0.04    4.95    0.19    0.00    0.00      -9.80   12.97    0.49
#  18   -5.94   -2.67    1.47    2.31   -0.37    0.00    0.00      -5.20    5.74   -0.93
#  19   -0.10   -1.54    0.31   -0.31   -0.17    0.00    0.00      -1.81   -0.72   -0.39
#  20   -0.30   -1.64    0.37   -0.23   -0.13    0.00    0.00      -1.93   -0.49   -0.29
#  21   -0.50   -3.50    0.95   -0.16   -0.52    0.00    0.00      -3.73   -0.30   -0.97
#  22   -0.05   -1.02    0.76    0.52   -0.17    0.00    0.00       0.04    0.80   -0.26
#  23    0.36   -0.51    0.13    0.51   -0.16    0.00    0.00       0.33    0.90   -0.28
#  24    0.29   -0.86    0.42    0.54   -0.16    0.00    0.00       0.23    0.89   -0.26
#  25   -0.09   -0.43    0.12    0.90   -0.09    0.00    0.00       0.41    2.25   -0.22
#  26   -0.52   -0.20    0.02    0.83   -0.06    0.00    0.00       0.06    3.93   -0.28
#  27   -3.47   -0.01    0.00    1.71    0.08    0.00    0.00      -1.70   10.36    0.46
#  28   -2.12   -0.12    0.01    0.73   -0.03    0.00    0.00      -1.53    6.37   -0.22
#  29   -1.54   -0.12    0.01    0.87   -0.03    0.00    0.00      -0.81    7.42   -0.28
#  30   -2.15   -0.01    0.00    2.56    0.08    0.00    0.00       0.48   13.43    0.40
#  31   -3.58   -0.01    0.00    1.78    0.07    0.00    0.00      -1.74   10.42    0.41
#  32   -1.37   -0.01    0.00    1.80    0.07    0.00    0.00       0.48   10.04    0.37
#  33   -6.47   -0.66    0.43    2.11   -0.11    0.00    0.00      -4.70    5.14   -0.26
#  34    0.27   -0.44    0.28    0.25   -0.07    0.00    0.00       0.30    0.78   -0.22
@<TRIPOS>MOLECULE
E24353083
   34    35     0     0     0
SMALL
USER_CHARGES


@<TRIPOS>ATOM
      1 C1         20.4922   12.5209   63.3204 C.3       1             0.0224
      2 O1         20.9615   13.5006   64.2489 O.3       1            -0.3005
      3 C2         21.5670   14.6025   63.7304 C.ar      1             0.1397
      4 C3         22.9370   14.6033   63.5136 C.ar      1            -0.1783
      5 C4         23.5526   15.7216   62.9871 C.ar      1            -0.0876
      6 C5         22.8002   16.8462   62.6744 C.ar      1             0.1005
      7 N1         23.4243   17.9803   62.1402 N.am      1            -0.6521
      8 C6         22.7466   18.7915   61.3040 C.2       1             0.5647
      9 O2         21.5931   18.5387   61.0136 O.2       1            -0.4950
     10 C7         23.4040   19.9861   60.7414 C.ar      1            -0.1865
     11 C8         24.7974   20.0205   60.5760 C.ar      1             0.0555
     12 C9         25.3649   21.1491   60.0496 C.ar      1            -0.1895
     13 C10        24.5497   22.2231   59.6958 C.ar      1             0.4657
     14 N2         25.1203   23.3666   59.1630 N.pl3     1            -0.5263
     15 N3         24.5330   24.5828   59.3687 N.3       1            -0.6136
     16 N4         23.2353   22.1648   59.8619 N.ar      1            -0.4974
     17 H1         22.6921   22.9268   59.6067 H         1             0.4521
     18 C11        22.6489   21.0963   60.3602 C.ar      1             0.2187
     19 C12        21.4288   16.8456   62.8915 C.ar      1            -0.0689
     20 C13        20.8129   15.7238   63.4131 C.ar      1            -0.0544
     21 Cl1        19.0972   15.7194   63.6776 Cl        1            -0.0393
     22 H2         20.0314   11.6963   63.8642 H         1             0.0606
     23 H3         19.7568   12.9735   62.6553 H         1             0.1087
     24 H4         21.3305   12.1456   62.7335 H         1             0.0607
     25 H5         23.5224   13.7289   63.7569 H         1             0.1475
     26 H6         24.6194   15.7218   62.8187 H         1             0.1387
     27 H7         24.3444   18.1820   62.3719 H         1             0.4125
     28 H8         25.4081   19.1755   60.8582 H         1             0.1768
     29 H9         26.4342   21.2074   59.9101 H         1             0.1888
     30 H10        25.9371   23.3043   58.6434 H         1             0.4457
     31 H11        24.0141   24.5920   60.2340 H         1             0.4001
     32 H12        25.2184   25.3230   59.3501 H         1             0.3560
     33 H13        21.5755   21.0805   60.4786 H         1             0.2226
     34 H14        20.8430   17.7198   62.6486 H         1             0.1514
@<TRIPOS>BOND
     1    1    2 1 
     2    1   22 1 
     3    1   23 1 
     4    1   24 1 
     5    2    3 1 
     6    3   20 ar
     7    3    4 ar
     8    4    5 ar
     9    4   25 1 
    10    5    6 ar
    11    5   26 1 
    12    6    7 1 
    13    6   19 ar
    14    7    8 am
    15    7   27 1 
    16    8    9 2 
    17    8   10 1 
    18   10   18 ar
    19   10   11 ar
    20   11   12 ar
    21   11   28 1 
    22   12   13 ar
    23   12   29 1 
    24   13   14 1 
    25   13   16 ar
    26   14   15 1 
    27   14   30 1 
    28   15   31 1 
    29   15   32 1 
    30   16   17 1 
    31   16   18 ar
    32   18   33 1 
    33   19   20 ar
    34   19   34 1 
    35   20   21 1 
##########                 Name:              E903821
##########          Protonation:                  100
##########               SMILES:   Cc1ccc(cc1)c2c(cn(n2)c3ccccc3Cl)C=O
##########            Long Name:   1-(2-chlorophenyl)-3-(p-tolyl)pyrazole-4-carbaldehyde
##########          FlexRecCode: 1
##########               Number:                  260
##########   Ligand Source File: /raidb/db2/rgc/leads-emolecules-300/leads-emolecules-2h-0000311.db2.gz
##########           GlobalRank: 1512
##########                 Rank:                    1
##########               Setnum:                   11
##########             Matchnum:                 3548
##########                Cloud:                    1
##########        Electrostatic:            -9.097237
##########        Van der Waals:           -33.674351
##########  Ligand Polar Desolv:             5.852854
########## Ligand Apolar Desolv:            -5.201178
##########      Internal Energy:             0.000000
##########      Receptor Energy: 0.0
########## Receptor Desolvation:             0.000000
########## Receptor Hydrophobic:             0.000000
##########         Total Energy: -42.12
##########        Ligand Charge:             0.000000
##########            Arbitrary:    +999.9990
##########     heavy atom count:   21
##########           pose count:    1
##########        Ligand Energy:             0.000000
# num electro vdwattr vdwrepu polsolv apolsol rdesolv rhydroe totalscore fullpol fullapo
#   1    2.34   -0.77    0.09   -0.11   -0.07    0.00    0.00       1.47   -0.30   -0.20
#   2    0.94   -1.09    0.07    0.00   -0.17    0.00    0.00      -0.26   -0.01   -0.41
#   3    1.63   -1.39    0.17    0.09   -0.21    0.00    0.00       0.29    0.19   -0.45
#   4    0.32   -1.89    0.68    0.16   -0.20    0.00    0.00      -0.93    0.35   -0.45
#   5   -0.10   -1.80    0.56    0.08   -0.18    0.00    0.00      -1.43    0.19   -0.40
#   6    0.05   -2.19    0.82    0.02   -0.19    0.00    0.00      -1.49    0.04   -0.41
#   7    0.85   -1.58    0.19   -0.05   -0.19    0.00    0.00      -0.78   -0.11   -0.45
#   8    1.49   -1.94    0.58   -0.35   -0.37    0.00    0.00      -0.59   -0.72   -0.77
#   9   -4.26   -2.88    1.66    0.99    0.46    0.00    0.00      -4.03    1.84    0.86
#  10   -3.26   -1.92    0.30    0.78    0.42    0.00    0.00      -3.67    1.34    0.72
#  11    0.80   -2.04    0.50   -0.19   -0.54    0.00    0.00      -1.47   -0.32   -0.90
#  12   -1.69   -1.61    0.27    0.64   -0.25    0.00    0.00      -2.65    1.11   -0.44
#  13    0.88   -2.16    1.26   -0.49   -0.13    0.00    0.00      -0.64   -0.87   -0.23
#  14   -1.85   -2.72    0.67    1.77    0.27    0.00    0.00      -1.87    2.86    0.43
#  15    1.50   -2.31    0.45   -0.18   -0.45    0.00    0.00      -0.99   -0.28   -0.71
#  16   -0.47   -3.69    1.12   -0.13   -0.29    0.00    0.00      -3.45   -0.19   -0.44
#  17    0.04   -5.18    2.62   -0.22   -0.32    0.00    0.00      -3.07   -0.32   -0.47
#  18   -0.54   -3.67    1.24   -0.22   -0.30    0.00    0.00      -3.49   -0.34   -0.47
#  19   -0.94   -2.78    1.43   -0.02   -0.29    0.00    0.00      -2.59   -0.03   -0.46
#  20   -0.52   -2.64    1.12    0.15   -0.18    0.00    0.00      -2.07    0.24   -0.29
#  21   -0.30   -6.67    3.70    0.19   -0.53    0.00    0.00      -3.61    0.32   -0.88
#  22   -2.07   -0.42    0.17    0.09   -0.09    0.00    0.00      -2.33    0.28   -0.28
#  23   -1.36   -0.34    0.14    0.05   -0.08    0.00    0.00      -1.59    0.20   -0.28
#  24   -1.09   -0.15    0.01    0.04   -0.04    0.00    0.00      -1.23    0.31   -0.28
#  25   -2.67   -0.38    0.07    0.01   -0.11    0.00    0.00      -3.08    0.03   -0.28
#  26   -0.39   -0.56    0.27   -0.24   -0.13    0.00    0.00      -1.05   -0.54   -0.28
#  27    0.31   -0.93    0.96    0.14   -0.10    0.00    0.00       0.37    0.29   -0.22
#  28   -0.84   -0.49    0.12    0.23   -0.10    0.00    0.00      -1.08    0.63   -0.28
#  29    0.54   -0.59    0.28    0.14   -0.12    0.00    0.00       0.26    0.29   -0.24
#  30   -0.08   -0.50    0.63    0.09   -0.07    0.00    0.00       0.05    0.26   -0.22
#  31    0.51   -1.20    1.13    0.46   -0.15    0.00    0.00       0.75    0.72   -0.23
#  32   -1.11   -2.19    4.43    1.04   -0.20    0.00    0.00       1.98    1.48   -0.28
#  33    0.64   -0.96    0.58    0.77   -0.17    0.00    0.00       0.86    1.29   -0.28
#  34    1.59   -0.42    0.13    0.11   -0.12    0.00    0.00       1.30    0.26   -0.28
@<TRIPOS>MOLECULE
E903821
   34    36     0     0     0
SMALL
USER_CHARGES


@<TRIPOS>ATOM
      1 C1         23.4699   19.9487   60.8395 C.3       1            -0.1199
      2 C2         22.6317   18.9339   61.5735 C.ar      1            -0.0692
      3 C3         21.6238   18.2610   60.9067 C.ar      1            -0.1206
      4 C4         20.8531   17.3307   61.5736 C.ar      1            -0.0783
      5 C5         21.0922   17.0691   62.9220 C.ar      1            -0.0311
      6 C6         22.1098   17.7502   63.5887 C.ar      1            -0.0904
      7 C7         22.8772   18.6748   62.9100 C.ar      1            -0.1193
      8 C8         20.2675   16.0714   63.6440 C.2       1             0.1628
      9 N1         19.1467   16.3031   64.2882 N.2       1            -0.2528
     10 N2         18.6743   15.1064   64.8340 N.pl3     1            -0.3104
     11 C9         19.5146   14.1050   64.5263 C.2       1             0.1318
     12 C10        20.5452   14.6349   63.7696 C.2       1            -0.3195
     13 C11        21.6869   13.9085   63.2089 C.2       1             0.4137
     14 O1         21.7941   12.7136   63.3904 O.2       1            -0.4723
     15 C12        17.5014   14.9718   65.5884 C.ar      1             0.1550
     16 C13        17.5642   14.5065   66.8952 C.ar      1            -0.1280
     17 C14        16.4064   14.3754   67.6366 C.ar      1            -0.0874
     18 C15        15.1848   14.7069   67.0794 C.ar      1            -0.1103
     19 C16        15.1178   15.1702   65.7785 C.ar      1            -0.0895
     20 C17        16.2733   15.3093   65.0327 C.ar      1            -0.0407
     21 Cl1        16.1897   15.8978   63.4017 Cl        1            -0.0228
     22 H1         23.1335   20.0179   59.8050 H         1             0.0746
     23 H2         23.3670   20.9214   61.3207 H         1             0.0687
     24 H3         24.5153   19.6410   60.8618 H         1             0.0694
     25 H4         21.4395   18.4644   59.8621 H         1             0.1280
     26 H5         20.0659   16.8064   61.0521 H         1             0.1275
     27 H6         22.2995   17.5518   64.6331 H         1             0.1284
     28 H7         23.6682   19.2003   63.4245 H         1             0.1304
     29 H8         19.4036   13.0701   64.8143 H         1             0.1933
     30 H9         22.4332   14.4364   62.6339 H         1             0.1083
     31 H10        18.5176   14.2470   67.3313 H         1             0.1411
     32 H11        16.4551   14.0132   68.6529 H         1             0.1431
     33 H12        14.2812   14.6033   67.6617 H         1             0.1416
     34 H13        14.1621   15.4275   65.3461 H         1             0.1449
@<TRIPOS>BOND
     1    1    2 1 
     2    1   22 1 
     3    1   23 1 
     4    1   24 1 
     5    2    7 ar
     6    2    3 ar
     7    3    4 ar
     8    3   25 1 
     9    4    5 ar
    10    4   26 1 
    11    5    6 ar
    12    5    8 1 
    13    6    7 ar
    14    6   27 1 
    15    7   28 1 
    16    8   12 1 
    17    8    9 2 
    18    9   10 1 
    19   10   11 1 
    20   10   15 1 
    21   11   12 2 
    22   11   29 1 
    23   12   13 1 
    24   13   14 2 
    25   13   30 1 
    26   15   20 ar
    27   15   16 ar
    28   16   17 ar
    29   16   31 1 
    30   17   18 ar
    31   17   32 1 
    32   18   19 ar
    33   18   33 1 
    34   19   20 ar
    35   19   34 1 
    36   20   21 1 
##########                 Name:            E46167986
##########          Protonation:                   48
##########               SMILES:   c1[nH]cnc1C[NH+]2CC[C@]3(OC[C@@H](C3)c4cncnc4)CC2
##########            Long Name:   )-8-(1H-imidazol-4-ylmethyl)-2-pyrimidin-5-yl-4-oxa-8-azoniaspiro[4.5]decane
##########          FlexRecCode: 1
##########               Number:                  995
##########   Ligand Source File: /raidb/db2/rgc/leads-emolecules-300/leads-emolecules-3-cp-0000019.db2.gz
##########           GlobalRank: 1545
##########                 Rank:                    1
##########               Setnum:                    7
##########             Matchnum:                  147
##########                Cloud:                    1
##########        Electrostatic:           -19.819441
##########        Van der Waals:           -26.964188
##########  Ligand Polar Desolv:             7.513266
########## Ligand Apolar Desolv:            -2.795100
##########      Internal Energy:             0.000000
##########      Receptor Energy: 0.0
########## Receptor Desolvation:             0.000000
########## Receptor Hydrophobic:             0.000000
##########         Total Energy: -42.07
##########        Ligand Charge:             1.000000
##########            Arbitrary:    +999.9990
##########     heavy atom count:   22
##########           pose count:    1
##########        Ligand Energy:             0.000000
# num electro vdwattr vdwrepu polsolv apolsol rdesolv rhydroe totalscore fullpol fullapo
#   1   -1.02   -0.57    0.06    0.82   -0.11    0.00    0.00      -0.83    2.98   -0.39
#   2    5.68   -1.17    0.33   -3.48    0.09    0.00    0.00       1.46  -10.42    0.27
#   3   -8.47   -0.06    0.01    3.70    0.16    0.00    0.00      -4.67   12.86    0.54
#   4    0.03   -1.36    0.46    0.11   -0.12    0.00    0.00      -0.89    0.32   -0.37
#   5    0.98   -1.54    0.38   -1.65   -0.09    0.00    0.00      -1.92   -3.90   -0.21
#   6   -0.73   -0.67    0.04    0.94   -0.02    0.00    0.00      -0.43    2.40   -0.04
#   7    0.13   -0.90    0.13   -1.22   -0.10    0.00    0.00      -1.96   -2.82   -0.22
#   8   -0.03   -1.06    0.19   -0.49   -0.08    0.00    0.00      -1.48   -1.14   -0.19
#   9   -0.20   -0.78    0.10    0.40   -0.05    0.00    0.00      -0.53    1.09   -0.14
#  10    2.63   -0.73    0.05   -2.34    0.41    0.00    0.00       0.00   -7.42    1.29
#  11   -0.47   -1.74    0.43   -0.89   -0.17    0.00    0.00      -2.84   -1.78   -0.35
#  12    0.22   -2.45    0.72    0.68   -0.45    0.00    0.00      -1.28    1.24   -0.82
#  13   -3.03   -4.54    2.94   -2.01    1.33    0.00    0.00      -5.32   -3.18    2.10
#  14    0.96   -3.32    0.99    0.73   -2.09    0.00    0.00      -2.74    1.10   -3.17
#  15   -2.13   -1.97    0.29   -1.91    1.29    0.00    0.00      -4.44   -3.11    2.10
#  16    0.82   -1.61    0.29    0.66   -0.55    0.00    0.00      -0.38    1.16   -0.96
#  17    2.07   -0.71    0.04   -1.50   -0.08    0.00    0.00      -0.18   -3.53   -0.20
#  18    0.07   -0.79    0.12    0.15   -0.14    0.00    0.00      -0.58    0.42   -0.38
#  19    0.22   -1.48    0.58   -0.47   -0.17    0.00    0.00      -1.33   -1.71   -0.62
#  20    0.01   -2.00    1.51   -0.09   -0.29    0.00    0.00      -0.86   -0.30   -0.91
#  21   -1.39   -2.12    0.77   -3.71    0.42    0.00    0.00      -6.03  -10.75    1.22
#  22    0.62   -2.18    1.05    0.83   -1.12    0.00    0.00      -0.81    2.46   -3.33
#  23   -1.27   -1.75    0.63   -2.73    0.64    0.00    0.00      -4.47   -9.21    2.17
#  24   -1.01   -0.10    0.00    0.55   -0.03    0.00    0.00      -0.59    5.56   -0.28
#  25   -2.11   -0.20    0.03    0.81   -0.06    0.00    0.00      -1.53    4.06   -0.28
#  26   -1.06   -0.25    0.07    0.78   -0.05    0.00    0.00      -0.52    4.24   -0.27
#  27   -0.28   -1.05    1.52    1.29   -0.08    0.00    0.00       1.40    3.65   -0.22
#  28   -0.44   -0.85    0.50    1.04   -0.12    0.00    0.00       0.13    2.40   -0.27
#  29   -0.62   -0.71    0.24    1.45   -0.13    0.00    0.00       0.22    3.14   -0.28
#  30    0.34   -0.47    0.21    0.82   -0.10    0.00    0.00       0.80    2.30   -0.27
#  31   -0.14   -0.33    0.16    0.34   -0.07    0.00    0.00      -0.05    1.19   -0.24
#  32    0.27   -0.68    0.42    1.11   -0.11    0.00    0.00       1.02    2.72   -0.26
#  33   -0.25   -0.28    0.05    0.34   -0.07    0.00    0.00      -0.21    1.44   -0.28
#  34   -0.35   -0.32    0.14    0.16   -0.06    0.00    0.00      -0.43    0.60   -0.23
#  35   -0.31   -0.50    0.16    1.12   -0.11    0.00    0.00       0.37    2.67   -0.26
#  36   -0.39   -1.33    1.62    0.79   -0.18    0.00    0.00       0.51    1.20   -0.28
#  37    1.46   -0.28    0.03    0.92   -0.09    0.00    0.00       2.04    2.89   -0.28
#  38   -2.04   -0.30    0.05    0.69   -0.09    0.00    0.00      -1.69    2.10   -0.28
#  39   -1.59   -0.25    0.02    0.96   -0.08    0.00    0.00      -0.94    3.39   -0.28
#  40   -3.88   -0.50    0.31    1.65   -0.09    0.00    0.00      -2.52    5.04   -0.28
#  41   -2.48   -0.21    0.03    0.72   -0.05    0.00    0.00      -1.98    4.01   -0.27
#  42   -2.44   -0.30    0.09    1.43   -0.07    0.00    0.00      -1.28    6.12   -0.28
#  43    1.17   -0.03    0.00    2.96    0.19    0.00    0.00       4.29    9.06    0.59
#  44    0.68   -0.33    0.08    1.06   -0.08    0.00    0.00       1.41    3.77   -0.28
@<TRIPOS>MOLECULE
E46167986
   44    47     0     0     0
SMALL
USER_CHARGES


@<TRIPOS>ATOM
      1 C1         25.0073   21.5064   61.1076 C.3       1             0.0932
      2 N1         24.0053   20.5596   61.6152 N.4       1            -0.3811
      3 H1         23.1827   21.0664   61.9064 H         1             0.4238
      4 C2         24.5603   19.8308   62.7621 C.3       1            -0.0034
      5 C3         23.4888   18.9093   63.3511 C.3       1            -0.1549
      6 C4         23.0216   17.9291   62.2786 C.3       1             0.0961
      7 C5         21.8831   17.0467   62.8367 C.3       1            -0.1388
      8 C6         22.6977   15.9497   63.5766 C.3       1            -0.0688
      9 C7         23.9537   15.8172   62.6880 C.3       1             0.0554
     10 O1         24.0762   17.0268   61.9286 O.3       1            -0.3638
     11 C8         21.9327   14.6519   63.6204 C.ar      1            -0.1970
     12 C9         22.5980   13.4363   63.6391 C.ar      1             0.1555
     13 N2         21.8928   12.3171   63.6776 N.ar      1            -0.5131
     14 C10        20.5755   12.3494   63.6983 C.ar      1             0.3029
     15 N3         19.9093   13.4865   63.6816 N.ar      1            -0.5129
     16 C11        20.5470   14.6455   63.6490 C.ar      1             0.1599
     17 C12        22.5326   18.6855   61.0467 C.3       1            -0.1359
     18 C13        23.6445   19.6148   60.5513 C.3       1            -0.0035
     19 C14        25.0187   22.7387   61.9749 C.2       1            -0.0753
     20 C15        24.2652   23.8402   61.7948 C.2       1            -0.0022
     21 N4         24.5878   24.7096   62.8015 N.pl3     1            -0.5573
     22 C16        25.5278   24.1087   63.5625 C.2       1             0.2173
     23 N5         25.7769   22.9283   63.0648 N.2       1            -0.4798
     24 H2         25.9918   21.0389   61.1275 H         1             0.1389
     25 H3         24.7580   21.7850   60.0837 H         1             0.1415
     26 H4         25.4124   19.2347   62.4356 H         1             0.1339
     27 H5         24.8848   20.5421   63.5216 H         1             0.1257
     28 H6         23.9067   18.3561   64.1922 H         1             0.1137
     29 H7         22.6427   19.5061   63.6919 H         1             0.0976
     30 H8         21.2564   17.6063   63.5312 H         1             0.0963
     31 H9         21.2874   16.6177   62.0310 H         1             0.0933
     32 H10        22.9660   16.2770   64.5809 H         1             0.1032
     33 H11        24.8363   15.6821   63.3133 H         1             0.0831
     34 H12        23.8425   14.9673   62.0146 H         1             0.0824
     35 H13        23.6773   13.4027   63.6220 H         1             0.1652
     36 H14        20.0273   11.4194   63.7294 H         1             0.2025
     37 H15        19.9952   15.5738   63.6404 H         1             0.1685
     38 H16        22.2758   17.9746   60.2613 H         1             0.1212
     39 H17        21.6532   19.2747   61.3067 H         1             0.1020
     40 H18        23.2933   20.1665   59.6794 H         1             0.1336
     41 H19        24.5188   19.0237   60.2787 H         1             0.1363
     42 H20        23.5449   24.0059   61.0071 H         1             0.1879
     43 H21        24.2114   25.5926   62.9422 H         1             0.4352
     44 H22        25.9932   24.5332   64.4397 H         1             0.2217
@<TRIPOS>BOND
     1    1    2 1 
     2    1   19 1 
     3    1   24 1 
     4    1   25 1 
     5    2    3 1 
     6    2   18 1 
     7    2    4 1 
     8    4    5 1 
     9    4   26 1 
    10    4   27 1 
    11    5    6 1 
    12    5   28 1 
    13    5   29 1 
    14    6   10 1 
    15    6    7 1 
    16    6   17 1 
    17    7    8 1 
    18    7   30 1 
    19    7   31 1 
    20    8    9 1 
    21    8   11 1 
    22    8   32 1 
    23    9   10 1 
    24    9   33 1 
    25    9   34 1 
    26   11   16 ar
    27   11   12 ar
    28   12   13 ar
    29   12   35 1 
    30   13   14 ar
    31   14   15 ar
    32   14   36 1 
    33   15   16 ar
    34   16   37 1 
    35   17   18 1 
    36   17   38 1 
    37   17   39 1 
    38   18   40 1 
    39   18   41 1 
    40   19   23 1 
    41   19   20 2 
    42   20   21 1 
    43   20   42 1 
    44   21   22 1 
    45   21   43 1 
    46   22   23 2 
    47   22   44 1 
##########                 Name:             E6800198
##########          Protonation:                   98
##########               SMILES:   C[NH+](C)CCCNC1=CC(=O)C[C@@H](C1)c2ccccc2
##########            Long Name:   dimethyl-[3-[[(5R)-3-oxo-5-phenyl-cyclohexen-1-yl]amino]propyl]ammonium
##########          FlexRecCode: 1
##########               Number:                  560
##########   Ligand Source File: /raidb/db2/rgc/leads-emolecules-300/leads-emolecules-lt300-1g-0000012.db2.gz
##########           GlobalRank: 1545
##########                 Rank:                    1
##########               Setnum:                  188
##########             Matchnum:                 3718
##########                Cloud:                    1
##########        Electrostatic:           -20.792797
##########        Van der Waals:           -26.193426
##########  Ligand Polar Desolv:             9.445006
########## Ligand Apolar Desolv:            -4.526030
##########      Internal Energy:             0.000000
##########      Receptor Energy: 0.0
########## Receptor Desolvation:             0.000000
########## Receptor Hydrophobic:             0.000000
##########         Total Energy: -42.07
##########        Ligand Charge:             1.000000
##########            Arbitrary:    +999.9990
##########     heavy atom count:   20
##########           pose count:    1
##########        Ligand Energy:             0.000000
# num electro vdwattr vdwrepu polsolv apolsol rdesolv rhydroe totalscore fullpol fullapo
#   1    0.95   -0.94    0.29   -0.59   -0.15    0.00    0.00      -0.44   -1.89   -0.47
#   2    6.87   -0.83    0.09   -4.11    0.16    0.00    0.00       2.18  -11.99    0.46
#   3   -5.65   -0.01    0.00    2.54    0.09    0.00    0.00      -3.03   16.54    0.56
#   4    1.31   -1.61    0.92   -0.58   -0.19    0.00    0.00      -0.15   -1.50   -0.48
#   5    0.10   -0.66    0.03    0.08   -0.14    0.00    0.00      -0.59    0.20   -0.35
#   6    1.17   -0.73    0.06   -1.61   -0.08    0.00    0.00      -1.19   -4.35   -0.22
#   7   -0.16   -1.04    0.15    0.84   -0.16    0.00    0.00      -0.36    1.93   -0.37
#   8    0.43   -1.57    0.62   -5.64    0.67    0.00    0.00      -5.50  -13.75    1.63
#   9    0.89   -1.80    0.96    2.45   -0.33    0.00    0.00       2.18    5.21   -0.71
#  10   -0.75   -2.38    2.52   -2.37   -0.24    0.00    0.00      -3.21   -4.27   -0.43
#  11    1.44   -2.31    0.43    0.68   -0.19    0.00    0.00       0.05    1.09   -0.31
#  12   -3.34   -5.03    4.13    1.40    0.29    0.00    0.00      -2.55    2.10    0.44
#  13   -0.59   -1.71    0.56   -0.59   -0.14    0.00    0.00      -2.47   -0.96   -0.23
#  14   -0.24   -1.31    0.30   -0.07   -0.09    0.00    0.00      -1.41   -0.13   -0.15
#  15   -0.96   -1.12    0.18   -0.76   -0.11    0.00    0.00      -2.77   -1.47   -0.21
#  16   -0.81   -2.22    0.48   -0.43   -0.20    0.00    0.00      -3.18   -0.69   -0.33
#  17   -1.55   -2.50    0.94   -0.62   -0.24    0.00    0.00      -3.97   -1.04   -0.40
#  18   -1.57   -2.68    1.19   -0.61   -0.29    0.00    0.00      -3.97   -1.00   -0.47
#  19   -1.16   -2.71    0.78   -0.60   -0.30    0.00    0.00      -3.99   -0.93   -0.47
#  20   -0.46   -3.67    1.19   -0.62   -0.32    0.00    0.00      -3.88   -0.92   -0.47
#  21   -0.51   -3.27    0.92   -0.65   -0.29    0.00    0.00      -3.80   -1.00   -0.45
#  22   -2.69   -0.51    0.23    1.20   -0.10    0.00    0.00      -1.86    3.52   -0.28
#  23   -2.51   -0.45    0.36    0.90   -0.06    0.00    0.00      -1.76    4.11   -0.28
#  24   -1.34   -0.13    0.01    0.60   -0.03    0.00    0.00      -0.89    4.29   -0.23
#  25   -3.31   -0.44    0.14    1.22   -0.10    0.00    0.00      -2.49    3.43   -0.28
#  26   -3.61   -0.87    1.88    1.25   -0.09    0.00    0.00      -1.43    3.95   -0.28
#  27   -4.09   -0.78    0.72    1.66   -0.11    0.00    0.00      -2.61    4.05   -0.28
#  28   -1.80   -0.33    0.06    1.40   -0.08    0.00    0.00      -0.75    4.66   -0.28
#  29   -1.90   -0.20    0.01    1.03   -0.07    0.00    0.00      -1.13    4.20   -0.28
#  30   -0.71   -0.15    0.01    0.53   -0.03    0.00    0.00      -0.36    3.75   -0.21
#  31   -0.68   -0.42    0.15    1.13   -0.08    0.00    0.00       0.10    3.88   -0.28
#  32    0.05   -0.43    0.12    0.51   -0.10    0.00    0.00       0.15    1.43   -0.27
#  33    0.05   -0.55    0.29    0.59   -0.11    0.00    0.00       0.25    1.39   -0.27
#  34   -1.82   -0.03    0.00    2.92    0.16    0.00    0.00       1.23   10.50    0.57
#  35   -0.12   -0.54    0.61    0.39   -0.08    0.00    0.00       0.25    1.02   -0.21
#  36    0.44   -0.88    1.35    0.42   -0.13    0.00    0.00       1.20    0.79   -0.25
#  37   -0.02   -0.86    0.59    0.01   -0.16    0.00    0.00      -0.45    0.01   -0.28
#  38    0.67   -0.77    0.96    0.41   -0.12    0.00    0.00       1.15    0.94   -0.27
#  39    1.54   -0.62    0.42    1.02   -0.11    0.00    0.00       2.25    2.60   -0.28
#  40    1.03   -0.38    0.06    0.85   -0.11    0.00    0.00       1.45    2.01   -0.25
#  41    1.65   -0.49    0.11    0.85   -0.12    0.00    0.00       2.00    1.72   -0.24
#  42    1.57   -0.51    0.13    0.57   -0.14    0.00    0.00       1.62    1.14   -0.28
#  43    1.22   -0.46    0.07    0.42   -0.14    0.00    0.00       1.11    0.83   -0.28
#  44   -0.20   -1.23    0.91    0.62   -0.18    0.00    0.00      -0.09    0.94   -0.28
#  45    0.35   -1.17    1.18    0.83   -0.18    0.00    0.00       1.01    1.32   -0.28
@<TRIPOS>MOLECULE
E6800198
   45    46     0     0     0
SMALL
USER_CHARGES


@<TRIPOS>ATOM
      1 C1         24.7163   18.6021   60.0121 C.3       1            -0.0536
      2 N1         23.9452   19.5728   60.8003 N.4       1            -0.3866
      3 H1         24.5697   20.0912   61.3998 H         1             0.4275
      4 C2         23.2537   20.4999   59.8946 C.3       1            -0.0480
      5 C3         22.9563   18.8615   61.6214 C.3       1            -0.0075
      6 C4         23.6765   17.8958   62.5646 C.3       1            -0.1644
      7 C5         22.6465   17.1548   63.4198 C.3       1             0.1186
      8 N2         21.7398   16.4024   62.5494 N.pl3     1            -0.7203
      9 C6         21.0151   15.3649   63.0547 C.2       1             0.2548
     10 C7         21.5357   14.1189   63.0316 C.2       1            -0.3750
     11 C8         20.8361   13.0210   63.5418 C.2       1             0.4011
     12 O1         21.3383   11.9150   63.5012 O.2       1            -0.4879
     13 C9         19.4652   13.1969   64.1423 C.3       1            -0.1650
     14 C10        19.3536   14.6067   64.7313 C.3       1            -0.0309
     15 C11        19.6511   15.6289   63.6341 C.3       1            -0.0946
     16 C12        17.9592   14.8237   65.2604 C.ar      1            -0.0869
     17 C13        16.9782   15.3375   64.4330 C.ar      1            -0.1152
     18 C14        15.6993   15.5366   64.9184 C.ar      1            -0.1160
     19 C15        15.4013   15.2215   66.2310 C.ar      1            -0.1167
     20 C16        16.3821   14.7070   67.0581 C.ar      1            -0.1158
     21 C17        17.6600   14.5038   66.5716 C.ar      1            -0.1122
     22 H2         24.0417   18.0421   59.3645 H         1             0.1240
     23 H3         25.4501   19.1299   59.4029 H         1             0.1263
     24 H4         25.2293   17.9142   60.6841 H         1             0.1232
     25 H5         22.6816   21.2201   60.4795 H         1             0.1235
     26 H6         23.9875   21.0276   59.2853 H         1             0.1249
     27 H7         22.5790   19.9398   59.2470 H         1             0.1262
     28 H8         22.3842   19.5817   62.2063 H         1             0.1363
     29 H9         22.2816   18.3016   60.9739 H         1             0.1351
     30 H10        24.2487   17.1756   61.9796 H         1             0.0957
     31 H11        24.3511   18.4557   63.2122 H         1             0.0955
     32 H12        23.1597   16.4669   64.0917 H         1             0.0806
     33 H13        22.0744   17.8752   64.0047 H         1             0.0806
     34 H14        21.6552   16.6425   61.6135 H         1             0.4049
     35 H15        22.5174   13.9665   62.6077 H         1             0.1232
     36 H16        18.7088   13.0639   63.3689 H         1             0.0999
     37 H17        19.3154   12.4594   64.9309 H         1             0.0974
     38 H18        20.0752   14.7228   65.5399 H         1             0.0889
     39 H19        19.6236   16.6337   64.0556 H         1             0.0898
     40 H20        18.9000   15.5435   62.8489 H         1             0.1017
     41 H21        17.2111   15.5835   63.4076 H         1             0.1211
     42 H22        14.9330   15.9386   64.2722 H         1             0.1243
     43 H23        14.4023   15.3778   66.6104 H         1             0.1243
     44 H24        16.1494   14.4613   68.0837 H         1             0.1247
     45 H25        18.4253   14.0984   67.2167 H         1             0.1224
@<TRIPOS>BOND
     1    1    2 1 
     2    1   22 1 
     3    1   23 1 
     4    1   24 1 
     5    2    3 1 
     6    2    4 1 
     7    2    5 1 
     8    4   25 1 
     9    4   26 1 
    10    4   27 1 
    11    5    6 1 
    12    5   28 1 
    13    5   29 1 
    14    6    7 1 
    15    6   30 1 
    16    6   31 1 
    17    7    8 1 
    18    7   32 1 
    19    7   33 1 
    20    8    9 1 
    21    8   34 1 
    22    9   15 1 
    23    9   10 2 
    24   10   11 1 
    25   10   35 1 
    26   11   12 2 
    27   11   13 1 
    28   13   14 1 
    29   13   36 1 
    30   13   37 1 
    31   14   15 1 
    32   14   16 1 
    33   14   38 1 
    34   15   39 1 
    35   15   40 1 
    36   16   21 ar
    37   16   17 ar
    38   17   18 ar
    39   17   41 1 
    40   18   19 ar
    41   18   42 1 
    42   19   20 ar
    43   19   43 1 
    44   20   21 ar
    45   20   44 1 
    46   21   45 1 
##########                 Name:            E36257756
##########          Protonation:                   80
##########               SMILES:   CCC[NH+]1CCN(CC1)CCCOc2ccc(cc2)F
##########            Long Name:   1-[3-(4-fluorophenoxy)propyl]-4-propyl-piperazin-4-ium
##########          FlexRecCode: 1
##########               Number:                   39
##########   Ligand Source File: /raidb/db2/rgc/leads-emolecules-300/leads-lt300-emolecules-1j-0000162.db2.gz
##########           GlobalRank: 1545
##########                 Rank:                    1
##########               Setnum:                  152
##########             Matchnum:                 1476
##########                Cloud:                    1
##########        Electrostatic:           -23.121532
##########        Van der Waals:           -23.111311
##########  Ligand Polar Desolv:             6.880950
########## Ligand Apolar Desolv:            -2.713208
##########      Internal Energy:             0.000000
##########      Receptor Energy: 0.0
########## Receptor Desolvation:             0.000000
########## Receptor Hydrophobic:             0.000000
##########         Total Energy: -42.07
##########        Ligand Charge:             1.000000
##########            Arbitrary:    +999.9990
##########     heavy atom count:   20
##########           pose count:    1
##########        Ligand Energy:             0.000000
# num electro vdwattr vdwrepu polsolv apolsol rdesolv rhydroe totalscore fullpol fullapo
#   1    0.55   -0.76    0.13   -1.24   -0.07    0.00    0.00      -1.39   -3.45   -0.19
#   2    0.72   -0.86    0.19   -1.17   -0.07    0.00    0.00      -1.19   -3.62   -0.23
#   3    0.22   -0.76    0.13   -0.03   -0.09    0.00    0.00      -0.53   -0.09   -0.29
#   4    7.72   -2.04    2.83   -3.50    0.14    0.00    0.00       5.15  -11.08    0.43
#   5  -15.29   -0.33    0.43    5.59    0.19    0.00    0.00      -9.41   16.34    0.56
#   6    0.16   -1.29    0.42    0.10   -0.15    0.00    0.00      -0.76    0.28   -0.41
#   7   -0.58   -0.99    0.21    0.13   -0.15    0.00    0.00      -1.38    0.34   -0.39
#   8    7.78   -0.85    0.06   -3.87    1.00    0.00    0.00       4.12  -12.40    3.19
#   9   -0.56   -0.86    0.13    0.43   -0.12    0.00    0.00      -0.98    1.32   -0.38
#  10    0.86   -1.21    0.18   -0.67   -0.10    0.00    0.00      -0.95   -1.59   -0.24
#  11   -0.22   -0.82    0.07    0.19   -0.04    0.00    0.00      -0.82    0.45   -0.09
#  12   -0.80   -1.64    0.44   -1.36    0.40    0.00    0.00      -2.95   -2.99    0.89
#  13    0.45   -1.69    0.41    0.38   -0.14    0.00    0.00      -0.58    0.86   -0.31
#  14   -1.32   -1.59    0.25   -0.75   -0.22    0.00    0.00      -3.63   -1.43   -0.42
#  15   -0.56   -1.85    0.31   -0.44   -0.28    0.00    0.00      -2.83   -0.72   -0.47
#  16    0.24   -2.40    0.45   -0.08   -0.21    0.00    0.00      -1.99   -0.12   -0.34
#  17   -0.33   -2.96    1.57   -0.12   -0.33    0.00    0.00      -2.16   -0.17   -0.48
#  18   -0.28   -2.36    0.58   -0.34   -0.27    0.00    0.00      -2.67   -0.59   -0.47
#  19   -0.17   -1.77    0.44   -0.43   -0.22    0.00    0.00      -2.16   -0.90   -0.46
#  20   -0.25   -0.61    0.11    0.01   -0.10    0.00    0.00      -0.83    0.04   -0.38
#  21    0.03   -0.56    0.11    0.14   -0.10    0.00    0.00      -0.38    0.58   -0.42
#  22   -0.16   -0.34    0.08    0.28   -0.09    0.00    0.00      -0.23    0.90   -0.28
#  23   -0.31   -0.24    0.05    0.22   -0.06    0.00    0.00      -0.34    1.02   -0.28
#  24   -0.16   -0.17    0.02    0.06   -0.05    0.00    0.00      -0.30    0.36   -0.28
#  25   -0.43   -0.57    0.40    0.92   -0.07    0.00    0.00       0.23    2.60   -0.21
#  26   -0.28   -0.20    0.04    0.57   -0.05    0.00    0.00       0.07    2.88   -0.28
#  27   -0.90   -0.12    0.00    0.54   -0.03    0.00    0.00      -0.50    4.74   -0.28
#  28   -1.71   -0.41    0.17    0.85   -0.04    0.00    0.00      -1.15    3.14   -0.15
#  29   -2.82   -0.43    0.29    1.44   -0.06    0.00    0.00      -1.58    5.10   -0.22
#  30   -4.47   -1.07    1.58    1.79   -0.11    0.00    0.00      -2.27    4.46   -0.28
#  31   -1.18   -0.22    0.01    0.48   -0.06    0.00    0.00      -0.97    1.73   -0.22
#  32   -3.78   -0.67    0.54    0.82   -0.11    0.00    0.00      -3.19    2.12   -0.28
#  33   -0.42   -0.43    0.28    0.24   -0.07    0.00    0.00      -0.39    1.05   -0.28
#  34   -0.89   -0.32    0.06    0.34   -0.07    0.00    0.00      -0.87    1.40   -0.28
#  35   -0.36   -0.80    0.32    0.39   -0.13    0.00    0.00      -0.58    0.82   -0.28
#  36   -0.81   -0.36    0.06    0.45   -0.07    0.00    0.00      -0.74    1.34   -0.22
#  37   -0.42   -0.20    0.03    0.21   -0.05    0.00    0.00      -0.42    1.22   -0.27
#  38   -0.20   -0.30    0.04    0.28   -0.07    0.00    0.00      -0.25    1.03   -0.27
#  39    1.80   -0.34    0.06    0.82   -0.08    0.00    0.00       2.26    2.27   -0.22
#  40    0.76   -0.59    0.47    0.55   -0.13    0.00    0.00       1.05    1.19   -0.28
#  41    0.18   -0.76    0.39    0.45   -0.14    0.00    0.00       0.11    0.90   -0.28
#  42   -0.04   -0.31    0.05    0.38   -0.08    0.00    0.00       0.00    1.29   -0.28
#  43   -0.48   -0.09    0.00    0.16   -0.02    0.00    0.00      -0.43    1.79   -0.21
#  44   -2.35   -0.46    0.31    0.48   -0.05    0.00    0.00      -2.07    1.95   -0.21
#  45   -1.05   -0.13    0.01    0.54   -0.03    0.00    0.00      -0.66    4.40   -0.28
#  46   -1.01   -0.10    0.00    0.61   -0.03    0.00    0.00      -0.53    5.56   -0.28
@<TRIPOS>MOLECULE
E36257756
   46    47     0     0     0
SMALL
USER_CHARGES


@<TRIPOS>ATOM
      1 C1         26.0241   24.6940   58.3415 C.3       1            -0.1560
      2 C2         25.8275   23.1772   58.3844 C.3       1            -0.1487
      3 C3         24.8369   22.8226   59.4951 C.3       1            -0.0220
      4 N1         24.6480   21.3664   59.5363 N.4       1            -0.3842
      5 H1         24.6098   21.0057   58.5948 H         1             0.4283
      6 C4         23.3915   21.0556   60.2305 C.3       1            -0.0066
      7 C5         23.1866   19.5395   60.2608 C.3       1             0.0253
      8 N2         24.3178   18.9112   60.9572 N.3       1            -0.5355
      9 C6         24.3578   19.3164   62.3687 C.3       1             0.0580
     10 C7         23.0597   18.8913   63.0583 C.3       1            -0.1182
     11 C8         22.9083   17.3715   62.9681 C.3       1             0.0582
     12 O1         21.6962   16.9745   63.6122 O.3       1            -0.3113
     13 C9         21.4088   15.6458   63.6216 C.ar      1             0.1156
     14 C10        20.0883   15.2213   63.6238 C.ar      1            -0.1805
     15 C11        19.7976   13.8707   63.6334 C.ar      1            -0.1132
     16 C12        20.8237   12.9412   63.6412 C.ar      1             0.0669
     17 F1         20.5380   11.6206   63.6511 F         1            -0.1363
     18 C13        22.1422   13.3635   63.6387 C.ar      1            -0.1113
     19 C14        22.4357   14.7134   63.6232 C.ar      1            -0.1198
     20 C15        25.5836   19.2293   60.2820 C.3       1             0.0185
     21 C16        25.7718   20.7475   60.2517 C.3       1            -0.0023
     22 H2         26.7299   24.9466   57.5502 H         1             0.0647
     23 H3         25.0681   25.1788   58.1441 H         1             0.0675
     24 H4         26.4146   25.0370   59.2996 H         1             0.0785
     25 H5         25.4373   22.8342   57.4262 H         1             0.0853
     26 H6         26.7836   22.6923   58.5819 H         1             0.0876
     27 H7         25.2271   23.1656   60.4532 H         1             0.1318
     28 H8         23.8808   23.3074   59.2976 H         1             0.1270
     29 H9         23.4361   21.4367   61.2508 H         1             0.1369
     30 H10        22.5600   21.5240   59.7039 H         1             0.1403
     31 H11        22.2608   19.3077   60.7873 H         1             0.0621
     32 H12        23.1304   19.1592   59.2408 H         1             0.1238
     33 H13        25.2042   18.8372   62.8605 H         1             0.0501
     34 H14        24.4655   20.3992   62.4329 H         1             0.0936
     35 H15        23.0894   19.1920   64.1056 H         1             0.0899
     36 H16        22.2132   19.3705   62.5665 H         1             0.0759
     37 H17        22.8789   17.0708   61.9209 H         1             0.0636
     38 H18        23.7550   16.8923   63.4600 H         1             0.0673
     39 H19        19.2877   15.9462   63.6183 H         1             0.1354
     40 H20        18.7695   13.5399   63.6350 H         1             0.1405
     41 H21        22.9416   12.6373   63.6445 H         1             0.1463
     42 H22        23.4643   15.0426   63.6172 H         1             0.1427
     43 H23        26.4107   18.7708   60.8240 H         1             0.0619
     44 H24        25.5588   18.8450   59.2623 H         1             0.1259
     45 H25        26.7042   20.9878   59.7410 H         1             0.1404
     46 H26        25.8076   21.1298   61.2720 H         1             0.1361
@<TRIPOS>BOND
     1    1    2 1 
     2    1   22 1 
     3    1   23 1 
     4    1   24 1 
     5    2    3 1 
     6    2   25 1 
     7    2   26 1 
     8    3    4 1 
     9    3   27 1 
    10    3   28 1 
    11    4    5 1 
    12    4   21 1 
    13    4    6 1 
    14    6    7 1 
    15    6   29 1 
    16    6   30 1 
    17    7    8 1 
    18    7   31 1 
    19    7   32 1 
    20    8    9 1 
    21    8   20 1 
    22    9   10 1 
    23    9   33 1 
    24    9   34 1 
    25   10   11 1 
    26   10   35 1 
    27   10   36 1 
    28   11   12 1 
    29   11   37 1 
    30   11   38 1 
    31   12   13 1 
    32   13   19 ar
    33   13   14 ar
    34   14   15 ar
    35   14   39 1 
    36   15   16 ar
    37   15   40 1 
    38   16   17 1 
    39   16   18 ar
    40   18   19 ar
    41   18   41 1 
    42   19   42 1 
    43   20   21 1 
    44   20   43 1 
    45   20   44 1 
    46   21   45 1 
    47   21   46 1 
##########                 Name:            E46140396
##########          Protonation:                   74
##########               SMILES:   c1cc(cnc1)C[NH+]2C[C@H]3CN(C[C@@H]3C2)Cc4cccnc4
##########            Long Name:   5-bis(3-pyridylmethyl)-2,3,3a,4,6,6a-hexahydro-1H-pyrrolo[3,4-c]pyrrol-2-ium
##########          FlexRecCode: 1
##########               Number:                  414
##########   Ligand Source File: /raidb/db2/rgc/leads-emolecules-300/leads-emolecules-2g-0000164.db2.gz
##########           GlobalRank: 1552
##########                 Rank:                    1
##########               Setnum:                  164
##########             Matchnum:                 1931
##########                Cloud:                    1
##########        Electrostatic:           -27.932322
##########        Van der Waals:           -23.411949
##########  Ligand Polar Desolv:            11.166016
########## Ligand Apolar Desolv:            -1.878905
##########      Internal Energy:             0.000000
##########      Receptor Energy: 0.0
########## Receptor Desolvation:             0.000000
########## Receptor Hydrophobic:             0.000000
##########         Total Energy: -42.06
##########        Ligand Charge:             1.000000
##########            Arbitrary:    +999.9990
##########     heavy atom count:   22
##########           pose count:    1
##########        Ligand Energy:             0.000000
# num electro vdwattr vdwrepu polsolv apolsol rdesolv rhydroe totalscore fullpol fullapo
#   1   -0.03   -1.08    0.20    0.67   -0.16    0.00    0.00      -0.39    1.60   -0.37
#   2    2.54   -1.25    0.36   -3.50    1.27    0.00    0.00      -0.60   -9.88    3.57
#   3   -0.45   -0.59    0.05    0.29   -0.12    0.00    0.00      -0.82    0.97   -0.40
#   4    1.82   -0.61    0.05   -1.08   -0.07    0.00    0.00       0.12   -3.42   -0.21
#   5   -0.31   -0.68    0.15    0.42   -0.13    0.00    0.00      -0.56    1.47   -0.46
#   6   10.73   -2.11    2.56   -4.47    0.17    0.00    0.00       6.88  -12.48    0.47
#   7  -18.54   -0.28    0.30    5.63    0.20    0.00    0.00     -12.70   15.80    0.56
#   8   -1.11   -1.04    0.25    0.78   -0.12    0.00    0.00      -1.24    2.29   -0.34
#   9    2.15   -0.79    0.07   -1.01   -0.09    0.00    0.00       0.32   -3.90   -0.35
#  10   -0.25   -1.20    0.27    0.47   -0.25    0.00    0.00      -0.95    1.83   -0.95
#  11   -1.19   -0.71    0.05   -1.84    0.51    0.00    0.00      -3.19   -7.47    2.05
#  12    0.13   -0.52    0.02    0.10   -0.19    0.00    0.00      -0.46    0.49   -0.98
#  13    0.30   -0.44    0.01   -0.58   -0.08    0.00    0.00      -0.80   -3.34   -0.48
#  14    0.37   -0.69    0.08   -0.22   -0.09    0.00    0.00      -0.56   -1.02   -0.40
#  15   -0.51   -1.27    0.34    0.43   -0.19    0.00    0.00      -1.21    0.97   -0.44
#  16    2.22   -0.65    0.04   -1.52   -0.07    0.00    0.00       0.01   -3.76   -0.18
#  17   -0.46   -0.92    0.28    0.48   -0.20    0.00    0.00      -0.83    1.18   -0.50
#  18   -0.31   -1.71    0.41   -0.62   -0.17    0.00    0.00      -2.41   -1.30   -0.36
#  19   -0.29   -1.62    0.32   -0.41   -0.24    0.00    0.00      -2.23   -0.79   -0.46
#  20   -0.89   -1.74    0.25   -0.85   -0.29    0.00    0.00      -3.52   -1.42   -0.48
#  21    0.34   -2.56    0.50    0.12   -0.63    0.00    0.00      -2.23    0.18   -0.98
#  22   -2.27   -3.28    1.05   -1.92    1.29    0.00    0.00      -5.13   -3.05    2.05
#  23    0.14   -2.25    0.61    0.42   -0.48    0.00    0.00      -1.55    0.79   -0.89
#  24    0.00   -0.52    0.31    0.48   -0.09    0.00    0.00       0.17    1.45   -0.27
#  25    0.11   -0.43    0.11    0.47   -0.10    0.00    0.00       0.16    1.27   -0.27
#  26   -0.49   -0.32    0.10    0.41   -0.06    0.00    0.00      -0.35    1.81   -0.25
#  27   -0.62   -0.14    0.01    0.07   -0.03    0.00    0.00      -0.71    0.55   -0.28
#  28   -1.78   -0.33    0.09    0.77   -0.08    0.00    0.00      -1.33    2.63   -0.28
#  29   -1.47   -0.12    0.00    0.72   -0.03    0.00    0.00      -0.90    5.79   -0.27
#  30   -2.31   -0.27    0.10    1.05   -0.05    0.00    0.00      -1.48    5.93   -0.28
#  31   -3.37   -0.56    0.33    2.11   -0.10    0.00    0.00      -1.58    6.17   -0.28
#  32   -3.05   -0.61    0.82    1.95   -0.08    0.00    0.00      -0.98    6.51   -0.28
#  33   -0.18   -0.84    0.93    1.41   -0.08    0.00    0.00       1.23    4.70   -0.28
#  34    0.42   -0.16    0.02    0.19   -0.04    0.00    0.00       0.43    1.26   -0.28
#  35   -0.03   -0.09    0.00    0.24   -0.03    0.00    0.00       0.09    2.49   -0.28
#  36   -1.58   -0.37    0.25    1.30   -0.05    0.00    0.00      -0.44    5.76   -0.24
#  37   -3.48   -0.43    0.13    1.78   -0.06    0.00    0.00      -2.05    4.80   -0.17
#  38   -3.99   -0.64    0.25    1.93   -0.13    0.00    0.00      -2.58    4.30   -0.28
#  39   -1.14   -0.21    0.01    0.76   -0.06    0.00    0.00      -0.64    3.36   -0.27
#  40   -0.84   -0.70    1.16    0.52   -0.10    0.00    0.00       0.04    1.50   -0.28
#  41   -0.18   -0.25    0.03    0.38   -0.07    0.00    0.00      -0.09    1.44   -0.26
#  42    1.27   -0.34    0.06    0.59   -0.09    0.00    0.00       1.50    1.77   -0.28
#  43    0.99   -0.40    0.12    0.56   -0.11    0.00    0.00       1.16    1.40   -0.28
#  44   -0.11   -0.84    0.46    0.65   -0.18    0.00    0.00      -0.03    1.03   -0.28
#  45   -0.24   -0.47    0.14    1.06   -0.11    0.00    0.00       0.37    2.56   -0.26
@<TRIPOS>MOLECULE
E46140396
   45    48     0     0     0
SMALL
USER_CHARGES


@<TRIPOS>ATOM
      1 C1         23.0209   16.1093   63.5733 C.3       1             0.0922
      2 N1         23.2827   16.4602   62.1710 N.3       1            -0.5115
      3 C2         24.5237   17.2429   62.0456 C.3       1             0.0599
      4 C3         24.2467   18.0533   60.7768 C.3       1            -0.1378
      5 C4         24.9127   19.3723   60.4134 C.3       1             0.0188
      6 N2         23.8517   20.1981   59.8314 N.4       1            -0.4016
      7 H1         24.0498   20.3723   58.8575 H         1             0.4286
      8 C5         23.7589   21.4723   60.5566 C.3       1             0.0541
      9 C6         25.1446   21.9669   60.8825 C.ar      1            -0.2187
     10 C7         25.4364   22.4509   62.1439 C.ar      1             0.1331
     11 N3         26.6465   22.8850   62.4365 N.ar      1            -0.4744
     12 C8         27.6203   22.8761   61.5471 C.ar      1             0.1386
     13 C9         27.4031   22.4068   60.2657 C.ar      1            -0.1647
     14 C10        26.1442   21.9371   59.9225 C.ar      1            -0.0500
     15 C11        22.5824   19.4587   59.9583 C.3       1             0.0203
     16 C12        22.8648   18.5777   61.1837 C.3       1            -0.1567
     17 C13        22.1914   17.2771   61.6197 C.3       1             0.0635
     18 C14        22.0709   14.9408   63.6298 C.ar      1            -0.1433
     19 C15        20.7008   15.1510   63.6662 C.ar      1            -0.0518
     20 C16        19.8649   14.0463   63.7179 C.ar      1            -0.1685
     21 C17        20.4211   12.7809   63.7311 C.ar      1             0.1058
     22 N4         21.7291   12.6187   63.6958 N.ar      1            -0.4832
     23 C18        22.5541   13.6463   63.6403 C.ar      1             0.1035
     24 H2         23.9576   15.8399   64.0613 H         1             0.0531
     25 H3         22.5772   16.9634   64.0849 H         1             0.0947
     26 H4         24.6603   17.8985   62.9057 H         1             0.0654
     27 H5         25.3855   16.5894   61.9112 H         1             0.1014
     28 H6         24.1876   17.4046   59.9028 H         1             0.1208
     29 H7         25.3169   19.8500   61.3058 H         1             0.1363
     30 H8         25.7057   19.2068   59.6841 H         1             0.1439
     31 H9         23.2472   22.2075   59.9355 H         1             0.1353
     32 H10        23.1993   21.3246   61.4803 H         1             0.1419
     33 H11        24.6641   22.4740   62.8985 H         1             0.1630
     34 H12        28.5989   23.2402   61.8234 H         1             0.1714
     35 H13        28.2046   22.4022   59.5418 H         1             0.1513
     36 H14        25.9465   21.5602   58.9298 H         1             0.1425
     37 H15        21.7514   20.1382   60.1483 H         1             0.1340
     38 H16        22.3946   18.8499   59.0739 H         1             0.1353
     39 H17        22.9978   19.2219   62.0527 H         1             0.0934
     40 H18        21.7378   16.7778   60.7635 H         1             0.0957
     41 H19        21.4409   17.4754   62.3850 H         1             0.0823
     42 H20        20.2944   16.1516   63.6551 H         1             0.1361
     43 H21        18.7927   14.1727   63.7476 H         1             0.1400
     44 H22        19.7768   11.9151   63.7713 H         1             0.1599
     45 H23        23.6198   13.4739   63.6072 H         1             0.1461
@<TRIPOS>BOND
     1    1    2 1 
     2    1   18 1 
     3    1   24 1 
     4    1   25 1 
     5    2   17 1 
     6    2    3 1 
     7    3    4 1 
     8    3   26 1 
     9    3   27 1 
    10    4   16 1 
    11    4    5 1 
    12    4   28 1 
    13    5    6 1 
    14    5   29 1 
    15    5   30 1 
    16    6    7 1 
    17    6    8 1 
    18    6   15 1 
    19    8    9 1 
    20    8   31 1 
    21    8   32 1 
    22    9   14 ar
    23    9   10 ar
    24   10   11 ar
    25   10   33 1 
    26   11   12 ar
    27   12   13 ar
    28   12   34 1 
    29   13   14 ar
    30   13   35 1 
    31   14   36 1 
    32   15   16 1 
    33   15   37 1 
    34   15   38 1 
    35   16   17 1 
    36   16   39 1 
    37   17   40 1 
    38   17   41 1 
    39   18   23 ar
    40   18   19 ar
    41   19   20 ar
    42   19   42 1 
    43   20   21 ar
    44   20   43 1 
    45   21   22 ar
    46   21   44 1 
    47   22   23 ar
    48   23   45 1 
##########                 Name:            E44337582
##########          Protonation:                   90
##########               SMILES:   C=CC[NH+]1CCC2(C1)CN(C2)C(=O)c3ccncc3
##########            Long Name:   (7-allyl-2-aza-7-azoniaspiro[3.4]octan-2-yl)-(4-pyridyl)methanone
##########          FlexRecCode: 1
##########               Number:                 1089
##########   Ligand Source File: /raidb/db2/rgc/leads-emolecules-300/leads-emolecules-3-ch-0000002.db2.gz
##########           GlobalRank: 1561
##########                 Rank:                    1
##########               Setnum:                   41
##########             Matchnum:                 1143
##########                Cloud:                    1
##########        Electrostatic:           -34.130047
##########        Van der Waals:           -18.919519
##########  Ligand Polar Desolv:            13.182972
########## Ligand Apolar Desolv:            -2.186351
##########      Internal Energy:             0.000000
##########      Receptor Energy: 0.0
########## Receptor Desolvation:             0.000000
########## Receptor Hydrophobic:             0.000000
##########         Total Energy: -42.05
##########        Ligand Charge:             1.000000
##########            Arbitrary:    +999.9990
##########     heavy atom count:   19
##########           pose count:    1
##########        Ligand Energy:             0.000000
# num electro vdwattr vdwrepu polsolv apolsol rdesolv rhydroe totalscore fullpol fullapo
#   1    1.01   -0.68    0.08   -0.98   -0.07    0.00    0.00      -0.65   -4.51   -0.34
#   2    2.82   -0.90    0.10   -1.29   -0.12    0.00    0.00       0.62   -4.63   -0.42
#   3   -0.69   -1.18    0.32    0.49   -0.12    0.00    0.00      -1.19    1.40   -0.35
#   4    9.49   -1.49    0.66   -4.63    0.17    0.00    0.00       4.20  -12.30    0.44
#   5  -13.60   -0.07    0.01    5.36    0.17    0.00    0.00      -8.13   17.71    0.56
#   6    0.12   -1.76    0.89    0.15   -0.21    0.00    0.00      -0.80    0.31   -0.43
#   7    2.04   -1.21    0.28   -1.68   -0.12    0.00    0.00      -0.69   -3.55   -0.26
#   8    1.35   -0.66    0.04   -0.75   -0.04    0.00    0.00      -0.05   -1.82   -0.09
#   9   -0.66   -1.22    0.29    0.83   -0.27    0.00    0.00      -1.01    1.89   -0.60
#  10   -0.11   -1.45    0.21   -4.64    1.09    0.00    0.00      -4.90  -10.62    2.50
#  11   -0.58   -0.76    0.13    0.78   -0.16    0.00    0.00      -0.59    2.09   -0.44
#  12    3.71   -1.91    0.60    2.10   -0.31    0.00    0.00       4.18    4.59   -0.68
#  13   -7.53   -3.23    2.59   -0.67    0.20    0.00    0.00      -8.63   -1.35    0.41
#  14   -0.36   -1.66    0.38   -0.53   -0.22    0.00    0.00      -2.40   -0.97   -0.41
#  15   -0.75   -1.79    0.27   -0.88   -0.26    0.00    0.00      -3.41   -1.45   -0.43
#  16    0.28   -3.03    0.77    0.54   -0.64    0.00    0.00      -2.09    0.82   -0.98
#  17   -3.35   -5.54    5.21   -1.95    1.34    0.00    0.00      -4.29   -2.99    2.05
#  18    0.22   -3.46    1.68    0.14   -0.56    0.00    0.00      -1.98    0.24   -0.98
#  19   -0.16   -1.90    0.49   -0.44   -0.23    0.00    0.00      -2.23   -0.87   -0.45
#  20   -0.06   -0.57    0.03    0.32   -0.16    0.00    0.00      -0.45    0.91   -0.46
#  21   -1.71   -0.26    0.11    0.36   -0.04    0.00    0.00      -1.53    2.22   -0.27
#  22   -0.50   -0.07    0.00    0.07   -0.02    0.00    0.00      -0.52    1.03   -0.28
#  23   -0.82   -0.19    0.03    0.63   -0.05    0.00    0.00      -0.40    3.84   -0.28
#  24   -3.42   -0.68    0.94    2.10   -0.09    0.00    0.00      -1.17    6.19   -0.28
#  25   -3.40   -0.74    0.60    1.58   -0.10    0.00    0.00      -2.05    4.28   -0.26
#  26   -3.46   -0.50    0.22    1.34   -0.10    0.00    0.00      -2.50    3.50   -0.26
#  27   -4.91   -1.43    2.73    2.57   -0.14    0.00    0.00      -1.19    5.01   -0.28
#  28   -1.64   -0.36    0.06    0.39   -0.11    0.00    0.00      -1.67    0.96   -0.28
#  29   -1.94   -0.81    1.11    1.70   -0.12    0.00    0.00      -0.06    3.92   -0.28
#  30   -0.52   -0.51    0.11    1.27   -0.12    0.00    0.00       0.23    2.92   -0.28
#  31   -0.67   -0.75    1.21    0.41   -0.10    0.00    0.00       0.09    1.11   -0.28
#  32   -0.59   -0.49    0.66    0.82   -0.06    0.00    0.00       0.34    3.23   -0.23
#  33   -0.50   -0.21    0.02    0.93   -0.06    0.00    0.00       0.18    4.43   -0.28
#  34    0.96   -0.35    0.06    1.88   -0.06    0.00    0.00       2.50    4.77   -0.14
#  35   -0.33   -1.04    0.96    2.05   -0.18    0.00    0.00       1.47    3.18   -0.28
#  36   -0.51   -1.17    1.86    0.48   -0.14    0.00    0.00       0.52    0.97   -0.28
#  37   -0.03   -0.30    0.04    0.09   -0.08    0.00    0.00      -0.28    0.28   -0.27
#  38   -1.72   -0.13    0.00    0.97   -0.03    0.00    0.00      -0.90    7.91   -0.28
#  39   -1.62   -0.23    0.02    1.26   -0.05    0.00    0.00      -0.61    6.10   -0.24
@<TRIPOS>MOLECULE
E44337582
   39    41     0     0     0
SMALL
USER_CHARGES


@<TRIPOS>ATOM
      1 C1         25.9452   21.0827   60.4167 C.2       1            -0.1041
      2 C2         24.8952   21.7197   60.8726 C.2       1            -0.2371
      3 C3         23.5157   21.3249   60.4125 C.3       1             0.0306
      4 N1         23.4976   19.8911   60.0933 N.4       1            -0.3883
      5 H1         24.1629   19.6972   59.3600 H         1             0.4289
      6 C4         22.1416   19.4958   59.6528 C.3       1            -0.0045
      7 C5         21.9350   18.0680   60.2238 C.3       1            -0.1189
      8 C6         22.6729   18.1667   61.5701 C.3       1            -0.1239
      9 C7         21.8066   18.4939   62.7827 C.3       1             0.1234
     10 N2         21.7496   17.0320   62.9959 N.am      1            -0.6432
     11 C8         23.0087   16.8402   62.2450 C.3       1             0.1129
     12 C9         20.8915   16.2039   63.6240 C.2       1             0.5887
     13 O1         19.9060   16.6539   64.1747 O.2       1            -0.5084
     14 C10        21.1495   14.7453   63.6431 C.ar      1            -0.0906
     15 C11        20.0940   13.8294   63.6894 C.ar      1            -0.1610
     16 C12        20.3802   12.4780   63.7053 C.ar      1             0.1006
     17 N3         21.6265   12.0497   63.6778 N.ar      1            -0.4620
     18 C13        22.6503   12.8787   63.6339 C.ar      1             0.1072
     19 C14        22.4551   14.2461   63.6094 C.ar      1            -0.1132
     20 C15        23.8440   19.1089   61.2986 C.3       1             0.0040
     21 H2         25.8222   20.2745   59.7110 H         1             0.1109
     22 H3         26.9343   21.3686   60.7431 H         1             0.1232
     23 H4         25.0184   22.5280   61.5784 H         1             0.1343
     24 H5         22.7958   21.5300   61.2048 H         1             0.1363
     25 H6         23.2511   21.8982   59.5239 H         1             0.1294
     26 H7         21.3965   20.1786   60.0613 H         1             0.1318
     27 H8         22.0863   19.4804   58.5645 H         1             0.1385
     28 H9         20.8761   17.8560   60.3727 H         1             0.1194
     29 H10        22.3951   17.3190   59.5794 H         1             0.1091
     30 H11        22.3349   19.0334   63.5688 H         1             0.1004
     31 H12        20.8448   18.9401   62.5297 H         1             0.0970
     32 H13        22.9927   15.9853   61.5690 H         1             0.1085
     33 H14        23.9028   16.8765   62.8675 H         1             0.1075
     34 H15        19.0706   14.1733   63.7128 H         1             0.1444
     35 H16        19.5717   11.7628   63.7410 H         1             0.1649
     36 H17        23.6552   12.4835   63.6131 H         1             0.1702
     37 H18        23.2985   14.9196   63.5687 H         1             0.1512
     38 H19        24.7509   18.5312   61.1199 H         1             0.1427
     39 H20        23.9885   19.7770   62.1475 H         1             0.1392
@<TRIPOS>BOND
     1    1    2 2 
     2    1   21 1 
     3    1   22 1 
     4    2    3 1 
     5    2   23 1 
     6    3    4 1 
     7    3   24 1 
     8    3   25 1 
     9    4    5 1 
    10    4   20 1 
    11    4    6 1 
    12    6    7 1 
    13    6   26 1 
    14    6   27 1 
    15    7    8 1 
    16    7   28 1 
    17    7   29 1 
    18    8   11 1 
    19    8    9 1 
    20    8   20 1 
    21    9   10 1 
    22    9   30 1 
    23    9   31 1 
    24   10   11 1 
    25   10   12 am
    26   11   32 1 
    27   11   33 1 
    28   12   13 2 
    29   12   14 1 
    30   14   19 ar
    31   14   15 ar
    32   15   16 ar
    33   15   34 1 
    34   16   17 ar
    35   16   35 1 
    36   17   18 ar
    37   18   19 ar
    38   18   36 1 
    39   19   37 1 
    40   20   38 1 
    41   20   39 1 
##########                 Name:            E45757179
##########          Protonation:                   97
##########               SMILES:   COCC[NH+]1CC[C@@H](CC1)CNC(=O)c2cocc2
##########            Long Name:   N-[[1-(2-methoxyethyl)piperidin-1-ium-4-yl]methyl]furan-3-carboxamide
##########          FlexRecCode: 1
##########               Number:                  328
##########   Ligand Source File: /raidb/db2/rgc/leads-emolecules-300/leads-lt300-emolecules-1d-0000195.db2.gz
##########           GlobalRank: 1643
##########                 Rank:                    1
##########               Setnum:                   67
##########             Matchnum:                 1717
##########                Cloud:                    1
##########        Electrostatic:           -28.176891
##########        Van der Waals:           -22.136375
##########  Ligand Polar Desolv:            10.021067
########## Ligand Apolar Desolv:            -1.644655
##########      Internal Energy:             0.000000
##########      Receptor Energy: 0.0
########## Receptor Desolvation:             0.000000
########## Receptor Hydrophobic:             0.000000
##########         Total Energy: -41.94
##########        Ligand Charge:             1.000000
##########            Arbitrary:    +999.9990
##########     heavy atom count:   19
##########           pose count:    1
##########        Ligand Energy:             0.000000
# num electro vdwattr vdwrepu polsolv apolsol rdesolv rhydroe totalscore fullpol fullapo
#   1   -0.13   -0.41    0.01    0.13    0.01    0.00    0.00      -0.40    0.48    0.03
#   2    3.37   -0.61    0.05   -2.20    0.33    0.00    0.00       0.94   -8.70    1.29
#   3   -0.24   -0.53    0.05    0.08   -0.03    0.00    0.00      -0.67    0.30   -0.12
#   4    0.16   -0.50    0.03    0.02   -0.08    0.00    0.00      -0.37    0.09   -0.32
#   5    8.67   -1.40    0.79   -3.78    0.14    0.00    0.00       4.42  -11.23    0.43
#   6  -14.41   -0.11    0.03    4.34    0.15    0.00    0.00      -9.99   14.83    0.52
#   7    0.12   -1.20    0.29    0.22   -0.17    0.00    0.00      -0.74    0.55   -0.42
#   8    2.33   -1.55    0.82   -1.63   -0.09    0.00    0.00      -0.12   -3.91   -0.21
#   9    1.14   -0.74    0.05   -0.92   -0.07    0.00    0.00      -0.53   -2.07   -0.16
#  10   -0.24   -1.26    0.31    0.82   -0.17    0.00    0.00      -0.54    1.81   -0.38
#  11   -0.77   -1.48    0.22   -4.46    0.97    0.00    0.00      -5.52  -10.30    2.23
#  12    3.66   -1.82    0.51    1.93   -0.30    0.00    0.00       3.98    4.19   -0.66
#  13   -7.42   -2.83    1.78   -0.32    0.20    0.00    0.00      -8.58   -0.64    0.41
#  14   -1.09   -1.65    0.32   -1.43   -0.25    0.00    0.00      -4.10   -2.47   -0.44
#  15    0.07   -2.12    0.44    0.60   -0.15    0.00    0.00      -1.17    1.02   -0.26
#  16   -0.87   -3.11    1.08   -1.19    0.12    0.00    0.00      -3.97   -1.83    0.19
#  17   -0.05   -3.40    1.15   -0.16   -0.18    0.00    0.00      -2.64   -0.24   -0.27
#  18   -0.78   -2.15    0.53   -0.81   -0.30    0.00    0.00      -3.51   -1.33   -0.50
#  19    1.63   -0.58    0.04   -1.46   -0.07    0.00    0.00      -0.44   -4.23   -0.21
#  20    0.22   -1.04    0.29    0.03   -0.14    0.00    0.00      -0.64    0.09   -0.40
#  21   -0.21   -0.14    0.01    0.06   -0.04    0.00    0.00      -0.32    0.43   -0.28
#  22   -0.32   -0.13    0.00    0.17   -0.04    0.00    0.00      -0.32    1.26   -0.28
#  23   -0.11   -0.11    0.00    0.14   -0.03    0.00    0.00      -0.11    1.24   -0.28
#  24   -0.16   -0.13    0.01    0.35   -0.03    0.00    0.00       0.04    2.78   -0.22
#  25   -1.21   -0.35    0.19    0.30   -0.06    0.00    0.00      -1.13    1.35   -0.28
#  26   -1.39   -0.10    0.00    0.43   -0.01    0.00    0.00      -1.07    4.60   -0.15
#  27   -1.35   -0.19    0.02    0.79   -0.05    0.00    0.00      -0.78    4.24   -0.28
#  28   -3.55   -0.47    0.19    1.66   -0.10    0.00    0.00      -2.27    4.80   -0.28
#  29   -3.75   -0.54    0.31    2.04   -0.11    0.00    0.00      -2.05    5.36   -0.28
#  30   -1.26   -0.66    0.53    0.79   -0.07    0.00    0.00      -0.67    2.42   -0.21
#  31   -1.95   -1.08    1.40    0.86   -0.12    0.00    0.00      -0.89    2.01   -0.28
#  32   -1.11   -0.23    0.02    0.94   -0.08    0.00    0.00      -0.46    3.30   -0.28
#  33   -0.18   -0.49    0.10    0.30   -0.12    0.00    0.00      -0.40    0.70   -0.28
#  34    0.15   -0.82    0.88    0.11   -0.12    0.00    0.00       0.19    0.24   -0.28
#  35   -0.49   -0.02    0.00    2.17    0.11    0.00    0.00       1.77    9.05    0.45
#  36    0.27   -0.40    0.09    2.78   -0.11    0.00    0.00       2.63    6.44   -0.26
#  37   -0.78   -1.41    2.15    1.83   -0.19    0.00    0.00       1.59    2.70   -0.28
#  38    1.13   -0.58    0.41    0.10   -0.12    0.00    0.00       0.94    0.23   -0.28
#  39   -0.84   -0.16    0.01    0.34   -0.03    0.00    0.00      -0.68    2.40   -0.22
#  40   -0.93   -0.22    0.04    0.58   -0.05    0.00    0.00      -0.58    2.89   -0.25
#  41   -3.26   -0.52    0.19    2.29   -0.11    0.00    0.00      -1.42    5.72   -0.28
#  42   -2.21   -0.31    0.08    1.18   -0.06    0.00    0.00      -1.31    4.49   -0.21
@<TRIPOS>MOLECULE
E45757179
   42    43     0     0     0
SMALL
USER_CHARGES


@<TRIPOS>ATOM
      1 C1         25.7132   23.8076   59.9290 C.3       1             0.0299
      2 O1         25.5768   22.3853   59.9379 O.3       1            -0.4023
      3 C2         25.2288   21.8428   61.2134 C.3       1             0.0277
      4 C3         25.1101   20.3213   61.1051 C.3       1            -0.0131
      5 N1         24.0687   19.9795   60.1271 N.4       1            -0.3795
      6 H1         24.3153   20.3629   59.2271 H         1             0.4344
      7 C4         22.7858   20.5441   60.5630 C.3       1            -0.0050
      8 C5         22.4457   20.0267   61.9623 C.3       1            -0.1427
      9 C6         22.3467   18.4989   61.9255 C.3       1            -0.1128
     10 C7         22.0853   17.9690   63.3368 C.3       1             0.1253
     11 N2         21.9909   16.5076   63.3000 N.am      1            -0.7360
     12 C8         20.8590   15.8950   63.7005 C.2       1             0.5917
     13 O2         19.9161   16.5556   64.0924 O.2       1            -0.5227
     14 C9         20.7641   14.4248   63.6635 C.2       1            -0.2420
     15 C10        21.7891   13.5296   63.7571 C.2       1             0.0211
     16 O3         21.2804   12.2962   63.6800 O.3       1            -0.1697
     17 C11        19.9464   12.3363   63.5377 C.2       1            -0.0276
     18 C12        19.5440   13.6163   63.5244 C.2       1            -0.1670
     19 C13        23.6649   17.9243   61.3988 C.3       1            -0.1483
     20 C14        23.9586   18.5196   60.0217 C.3       1            -0.0113
     21 H2         25.9783   24.1409   58.9255 H         1             0.0559
     22 H3         24.7698   24.2651   60.2266 H         1             0.0515
     23 H4         26.4963   24.1019   60.6280 H         1             0.1010
     24 H5         26.0014   22.0963   61.9391 H         1             0.0738
     25 H6         24.2751   22.2594   61.5374 H         1             0.0970
     26 H7         26.0638   19.9046   60.7810 H         1             0.1464
     27 H8         24.8447   19.9074   62.0780 H         1             0.1403
     28 H9         22.8570   21.6316   60.5856 H         1             0.1347
     29 H10        22.0027   20.2464   59.8657 H         1             0.1325
     30 H11        23.2281   20.3239   62.6606 H         1             0.0933
     31 H12        21.4920   20.4456   62.2834 H         1             0.1182
     32 H13        21.5298   18.2023   61.2677 H         1             0.1000
     33 H14        22.9042   18.2638   63.9931 H         1             0.0754
     34 H15        21.1504   18.3841   63.7134 H         1             0.0811
     35 H16        22.7430   15.9806   62.9876 H         1             0.3973
     36 H17        22.8342   13.7758   63.8736 H         1             0.2066
     37 H18        19.2995   11.4756   63.4526 H         1             0.2143
     38 H19        18.5312   13.9786   63.4283 H         1             0.1628
     39 H20        24.4727   18.1780   62.0853 H         1             0.0931
     40 H21        23.5826   16.8404   61.3172 H         1             0.1113
     41 H22        23.1505   18.2652   59.3360 H         1             0.1332
     42 H23        24.8963   18.1113   59.6443 H         1             0.1302
@<TRIPOS>BOND
     1    1    2 1 
     2    1   21 1 
     3    1   22 1 
     4    1   23 1 
     5    2    3 1 
     6    3    4 1 
     7    3   24 1 
     8    3   25 1 
     9    4    5 1 
    10    4   26 1 
    11    4   27 1 
    12    5    6 1 
    13    5   20 1 
    14    5    7 1 
    15    7    8 1 
    16    7   28 1 
    17    7   29 1 
    18    8    9 1 
    19    8   30 1 
    20    8   31 1 
    21    9   10 1 
    22    9   19 1 
    23    9   32 1 
    24   10   11 1 
    25   10   33 1 
    26   10   34 1 
    27   11   12 am
    28   11   35 1 
    29   12   13 2 
    30   12   14 1 
    31   14   18 1 
    32   14   15 2 
    33   15   16 1 
    34   15   36 1 
    35   16   17 1 
    36   17   18 2 
    37   17   37 1 
    38   18   38 1 
    39   19   20 1 
    40   19   39 1 
    41   19   40 1 
    42   20   41 1 
    43   20   42 1 
##########                 Name:            E36941110
##########          Protonation:                   87
##########               SMILES:   c1cc(cc(c1)O)C[NH2+]Cc2ccc(nc2)n3cncn3
##########            Long Name:   (3-hydroxyphenyl)methyl-[[6-(1,2,4-triazol-1-yl)-3-pyridyl]methyl]ammonium
##########          FlexRecCode: 1
##########               Number:                  553
##########   Ligand Source File: /raidb/db2/rgc/leads-emolecules-300/leads-lt300-emolecules-1j-0000234.db2.gz
##########           GlobalRank: 1643
##########                 Rank:                    1
##########               Setnum:                  203
##########             Matchnum:                 2441
##########                Cloud:                    1
##########        Electrostatic:           -21.711817
##########        Van der Waals:           -23.916712
##########  Ligand Polar Desolv:             6.370946
########## Ligand Apolar Desolv:            -2.685785
##########      Internal Energy:             0.000000
##########      Receptor Energy: 0.0
########## Receptor Desolvation:             0.000000
########## Receptor Hydrophobic:             0.000000
##########         Total Energy: -41.94
##########        Ligand Charge:             1.000000
##########            Arbitrary:    +999.9990
##########     heavy atom count:   21
##########           pose count:    1
##########        Ligand Energy:             0.000000
# num electro vdwattr vdwrepu polsolv apolsol rdesolv rhydroe totalscore fullpol fullapo
#   1   -1.09   -2.83    2.06   -2.52    0.47    0.00    0.00      -3.90   -6.39    1.19
#   2    0.26   -2.67    2.07    0.14   -0.10    0.00    0.00      -0.31    0.42   -0.31
#   3   -0.32   -2.18    1.12   -0.87   -0.15    0.00    0.00      -2.40   -2.62   -0.46
#   4   -0.26   -1.28    0.33   -0.71   -0.14    0.00    0.00      -2.06   -2.47   -0.47
#   5   -0.07   -0.78    0.09   -0.51   -0.10    0.00    0.00      -1.37   -2.26   -0.45
#   6    0.86   -0.78    0.07   -0.61   -0.09    0.00    0.00      -0.55   -2.51   -0.37
#   7   -0.58   -0.56    0.09    0.68   -0.10    0.00    0.00      -0.47    2.74   -0.42
#   8    8.12   -0.75    0.10   -5.72    0.22    0.00    0.00       1.97  -19.46    0.74
#   9   -7.80   -0.01    0.00    3.67    0.12    0.00    0.00      -4.03   18.06    0.57
#  10   -8.78   -0.02    0.00    3.49    0.11    0.00    0.00      -5.19   17.87    0.57
#  11   -0.49   -0.61    0.08    0.76   -0.11    0.00    0.00      -0.37    2.96   -0.42
#  12    2.01   -1.14    0.20   -1.33   -0.12    0.00    0.00      -0.37   -4.27   -0.37
#  13    0.14   -1.09    0.07   -0.02   -0.18    0.00    0.00      -1.08   -0.04   -0.46
#  14    0.40   -1.25    0.14   -1.37   -0.19    0.00    0.00      -2.27   -3.27   -0.45
#  15   -0.62   -1.38    0.22    1.32   -0.83    0.00    0.00      -1.30    3.26   -2.06
#  16    1.70   -1.35    0.20   -3.20    0.70    0.00    0.00      -1.94   -8.82    1.94
#  17   -1.11   -1.41    0.54    1.02   -0.28    0.00    0.00      -1.24    3.51   -0.95
#  18   -0.42   -1.70    0.35   -1.12    0.36    0.00    0.00      -2.53   -2.37    0.76
#  19    0.27   -2.68    1.23    0.91   -1.65    0.00    0.00      -1.92    1.72   -3.14
#  20   -2.41   -3.47    1.40   -1.39    1.39    0.00    0.00      -4.48   -2.27    2.27
#  21    0.97   -2.16    0.47    0.47   -2.06    0.00    0.00      -2.32    0.76   -3.35
#  22   -1.28   -1.62    0.28   -0.97    0.72    0.00    0.00      -2.87   -1.72    1.27
#  23    0.80   -1.71    1.07   -0.79   -0.14    0.00    0.00      -0.77   -2.66   -0.46
#  24   -2.89   -0.04    0.00    1.89    0.36    0.00    0.00      -0.68    6.40    1.22
#  25    0.44   -0.40    0.13    0.12   -0.08    0.00    0.00       0.21    0.41   -0.28
#  26    0.39   -0.19    0.02    0.30   -0.05    0.00    0.00       0.48    1.69   -0.28
#  27    0.05   -0.10    0.00    0.59   -0.03    0.00    0.00       0.52    5.69   -0.28
#  28   -2.33   -0.34    0.21    1.56   -0.06    0.00    0.00      -0.96    7.17   -0.28
#  29   -1.22   -0.12    0.01    0.84   -0.03    0.00    0.00      -0.51    7.63   -0.28
#  30   -0.99   -0.12    0.01    0.97   -0.03    0.00    0.00      -0.16    8.10   -0.28
#  31   -0.85   -0.34    0.10    2.01   -0.07    0.00    0.00       0.85    8.09   -0.28
#  32   -1.76   -0.23    0.02    1.74   -0.07    0.00    0.00      -0.31    6.94   -0.28
#  33    0.25   -0.27    0.04    0.35   -0.08    0.00    0.00       0.28    1.18   -0.27
#  34   -1.10   -0.25    0.11    1.19   -0.05    0.00    0.00      -0.10    7.27   -0.28
#  35   -0.45   -0.56    0.23    1.14   -0.12    0.00    0.00       0.24    2.75   -0.28
#  36    0.68   -0.46    0.10    1.15   -0.15    0.00    0.00       1.32    2.11   -0.28
#  37   -2.23   -0.33    0.12    1.18   -0.07    0.00    0.00      -1.33    4.71   -0.28
@<TRIPOS>MOLECULE
E36941110
   37    39     0     0     0
SMALL
USER_CHARGES


@<TRIPOS>ATOM
      1 O1         23.6116   24.9632   62.7648 O.3       1            -0.4924
      2 C1         24.5714   24.0085   62.6453 C.ar      1             0.1176
      3 C2         25.6067   23.9446   63.5669 C.ar      1            -0.1117
      4 C3         26.5806   22.9731   63.4435 C.ar      1            -0.0956
      5 C4         26.5247   22.0646   62.4025 C.ar      1            -0.1032
      6 C5         25.4946   22.1264   61.4826 C.ar      1            -0.1510
      7 C6         25.4369   21.1350   60.3491 C.3       1             0.0464
      8 N1         24.6647   19.9575   60.7673 N.4       1            -0.5100
      9 H1         23.7283   20.2399   61.0149 H         1             0.4274
     10 H2         24.6261   19.2936   60.0085 H         1             0.4273
     11 C7         25.3121   19.3350   61.9299 C.3       1             0.0545
     12 C8         24.5199   18.1270   62.3590 C.ar      1            -0.2402
     13 C9         23.1360   18.1902   62.4451 C.ar      1            -0.0181
     14 C10        22.4471   17.0576   62.8433 C.ar      1            -0.1590
     15 C11        23.1598   15.9028   63.1417 C.ar      1             0.4132
     16 N2         24.4793   15.8820   63.0476 N.ar      1            -0.5001
     17 C12        25.1627   16.9434   62.6654 C.ar      1             0.1741
     18 N3         22.4760   14.7518   63.5457 N.pl3     1            -0.3539
     19 C13        23.0189   13.5623   63.8739 C.2       1             0.3006
     20 N4         22.0465   12.7486   64.1953 N.2       1            -0.5254
     21 C14        20.8759   13.3766   64.0857 C.2       1             0.2359
     22 N5         21.0872   14.6063   63.6963 N.2       1            -0.3100
     23 C15        24.5147   23.0927   61.6050 C.ar      1            -0.1235
     24 H3         22.9311   24.9246   62.0788 H         1             0.4012
     25 H4         25.6510   24.6542   64.3799 H         1             0.1426
     26 H5         27.3870   22.9234   64.1604 H         1             0.1417
     27 H6         27.2873   21.3057   62.3078 H         1             0.1355
     28 H7         24.9567   21.5969   59.4865 H         1             0.1416
     29 H8         26.4486   20.8299   60.0815 H         1             0.1422
     30 H9         26.3237   19.0298   61.6623 H         1             0.1454
     31 H10        25.3538   20.0521   62.7496 H         1             0.1441
     32 H11        22.6088   19.1022   62.2071 H         1             0.1566
     33 H12        21.3700   17.0714   62.9216 H         1             0.1629
     34 H13        26.2391   16.8878   62.5953 H         1             0.1771
     35 H14        24.0721   13.3231   63.8715 H         1             0.2325
     36 H15        19.9090   12.9408   64.2897 H         1             0.2350
     37 H16        23.7076   23.1378   60.8887 H         1             0.1387
@<TRIPOS>BOND
     1    1    2 1 
     2    1   24 1 
     3    2   23 ar
     4    2    3 ar
     5    3    4 ar
     6    3   25 1 
     7    4    5 ar
     8    4   26 1 
     9    5    6 ar
    10    5   27 1 
    11    6    7 1 
    12    6   23 ar
    13    7    8 1 
    14    7   28 1 
    15    7   29 1 
    16    8    9 1 
    17    8   10 1 
    18    8   11 1 
    19   11   12 1 
    20   11   30 1 
    21   11   31 1 
    22   12   17 ar
    23   12   13 ar
    24   13   14 ar
    25   13   32 1 
    26   14   15 ar
    27   14   33 1 
    28   15   16 ar
    29   15   18 1 
    30   16   17 ar
    31   17   34 1 
    32   18   22 1 
    33   18   19 1 
    34   19   20 2 
    35   19   35 1 
    36   20   21 1 
    37   21   22 2 
    38   21   36 1 
    39   23   37 1 
##########                 Name:            E44337512
##########          Protonation:                   43
##########               SMILES:   c1c[nH]c(c1)C[NH+]2C[C@@]3(C2)CN(CC3)C(=O)c4ccncc4
##########            Long Name:   ridyl-[2-(1H-pyrrol-2-ylmethyl)-7-aza-2-azoniaspiro[3.4]octan-7-yl]methanone
##########          FlexRecCode: 1
##########               Number:                  462
##########   Ligand Source File: /raidb/db2/rgc/leads-emolecules-300/leads-emolecules-2h-0000208.db2.gz
##########           GlobalRank: 1670
##########                 Rank:                    1
##########               Setnum:                   88
##########             Matchnum:                 3454
##########                Cloud:                    1
##########        Electrostatic:           -27.448034
##########        Van der Waals:           -21.390434
##########  Ligand Polar Desolv:             9.144648
########## Ligand Apolar Desolv:            -2.218868
##########      Internal Energy:             0.000000
##########      Receptor Energy: 0.0
########## Receptor Desolvation:             0.000000
########## Receptor Hydrophobic:             0.000000
##########         Total Energy: -41.91
##########        Ligand Charge:             1.000000
##########            Arbitrary:    +999.9990
##########     heavy atom count:   22
##########           pose count:    1
##########        Ligand Energy:             0.000000
# num electro vdwattr vdwrepu polsolv apolsol rdesolv rhydroe totalscore fullpol fullapo
#   1   -5.52   -4.13    5.70   -1.21    0.20    0.00    0.00      -4.97   -2.52    0.41
#   2    1.81   -1.85    0.54    2.33   -0.29    0.00    0.00       2.54    5.20   -0.64
#   3    2.08   -1.24    0.10   -4.31    0.93    0.00    0.00      -2.44  -10.21    2.21
#   4   -0.62   -0.74    0.14    0.34   -0.13    0.00    0.00      -1.01    0.96   -0.37
#   5    1.05   -0.55    0.04   -0.80   -0.08    0.00    0.00      -0.34   -2.71   -0.26
#   6    1.41   -0.73    0.06   -1.12   -0.03    0.00    0.00      -0.42   -3.24   -0.09
#   7   -0.54   -0.79    0.09    0.75   -0.20    0.00    0.00      -0.69    2.02   -0.54
#   8    7.19   -2.19    2.82   -4.82    0.23    0.00    0.00       3.24  -13.62    0.65
#   9  -10.90   -0.26    0.22    5.25    0.20    0.00    0.00      -5.49   14.77    0.57
#  10   -1.17   -0.95    0.30    0.98   -0.13    0.00    0.00      -0.97    3.15   -0.42
#  11    0.16   -1.30    0.41    0.04   -0.20    0.00    0.00      -0.89    0.15   -0.70
#  12   -0.29   -2.34    1.55   -1.36   -0.17    0.00    0.00      -2.61   -4.05   -0.51
#  13   -0.56   -1.95    1.28   -1.27   -0.17    0.00    0.00      -2.67   -3.79   -0.51
#  14    0.11   -1.19    0.37   -0.13   -0.31    0.00    0.00      -1.16   -0.43   -1.01
#  15   -0.77   -0.69    0.04   -2.85    0.28    0.00    0.00      -4.00  -11.67    1.14
#  16   -0.16   -1.06    0.26    0.27   -0.16    0.00    0.00      -0.85    0.89   -0.52
#  17   -0.79   -1.31    0.21    0.89   -0.21    0.00    0.00      -1.20    2.04   -0.47
#  18   -0.27   -1.65    0.40   -0.47   -0.19    0.00    0.00      -2.17   -1.00   -0.40
#  19   -0.08   -1.84    0.49   -0.66   -0.18    0.00    0.00      -2.28   -1.41   -0.38
#  20    0.04   -2.90    1.23    0.38   -0.53    0.00    0.00      -1.78    0.71   -0.98
#  21   -2.31   -3.73    1.59   -1.78    1.28    0.00    0.00      -4.94   -2.85    2.05
#  22    0.39   -2.26    0.39    0.16   -0.62    0.00    0.00      -1.92    0.26   -0.98
#  23   -0.55   -1.64    0.30   -0.54   -0.26    0.00    0.00      -2.69   -0.93   -0.45
#  24   -0.44   -0.28    0.11    0.69   -0.05    0.00    0.00       0.03    3.16   -0.25
#  25   -1.15   -0.32    0.11    0.37   -0.06    0.00    0.00      -1.05    1.41   -0.22
#  26   -0.81   -0.31    0.14    1.07   -0.05    0.00    0.00       0.04    5.57   -0.27
#  27   -1.07   -0.12    0.00    0.30   -0.04    0.00    0.00      -0.92    2.40   -0.28
#  28   -3.88   -0.33    0.15    1.93   -0.06    0.00    0.00      -2.20    8.36   -0.28
#  29   -3.17   -0.25    0.02    1.57   -0.09    0.00    0.00      -1.92    5.15   -0.28
#  30   -1.85   -0.18    0.02    1.40   -0.05    0.00    0.00      -0.66    7.26   -0.26
#  31   -3.29   -0.43    0.18    1.77   -0.08    0.00    0.00      -1.86    6.00   -0.28
#  32   -0.54   -0.78    1.04    0.83   -0.09    0.00    0.00       0.46    2.67   -0.28
#  33    0.46   -0.66    1.21    0.21   -0.09    0.00    0.00       1.13    0.64   -0.28
#  34    0.55   -0.29    0.09    0.62   -0.07    0.00    0.00       0.90    2.59   -0.28
#  35   -0.07   -0.01    0.00    0.94    0.05    0.00    0.00       0.90   11.88    0.59
#  36   -0.37   -0.95    1.18    1.43   -0.10    0.00    0.00       1.20    4.14   -0.28
#  37   -1.09   -0.13    0.01    1.20   -0.04    0.00    0.00      -0.05    8.43   -0.26
#  38   -0.79   -0.59    0.19    0.60   -0.12    0.00    0.00      -0.71    1.43   -0.28
#  39   -0.28   -0.77    0.29    0.80   -0.13    0.00    0.00      -0.08    1.71   -0.27
#  40   -0.15   -0.31    0.06    1.23   -0.04    0.00    0.00       0.79    4.26   -0.15
#  41   -0.60   -0.85    0.83    1.29   -0.13    0.00    0.00       0.54    2.82   -0.28
#  42    0.27   -0.56    0.11    0.63   -0.17    0.00    0.00       0.29    1.06   -0.28
#  43    1.14   -0.27    0.02    0.19   -0.10    0.00    0.00       0.98    0.54   -0.28
@<TRIPOS>MOLECULE
E44337512
   43    46     0     0     0
SMALL
USER_CHARGES


@<TRIPOS>ATOM
      1 O1         20.5875   17.2766   64.0006 O.2       1            -0.5107
      2 C1         21.5467   16.7254   63.4976 C.2       1             0.5825
      3 N1         22.4919   17.4549   62.8725 N.am      1            -0.6181
      4 C2         23.3176   17.0115   61.7384 C.3       1             0.0842
      5 C3         24.5887   17.8707   61.8742 C.3       1            -0.1169
      6 C4         23.8833   19.2107   62.1201 C.3       1            -0.1274
      7 C5         23.3592   19.9585   60.8905 C.3       1             0.0280
      8 N2         23.6834   21.1454   61.6946 N.4       1            -0.4136
      9 H1         22.9379   21.4097   62.3211 H         1             0.4377
     10 C6         24.1601   22.2722   60.8816 C.3       1             0.0774
     11 C7         24.9171   23.2379   61.7563 C.2       1            -0.0812
     12 C8         24.3863   24.2816   62.4254 C.2       1            -0.1328
     13 C9         25.4367   24.9186   63.1152 C.2       1            -0.2003
     14 C10        26.5695   24.2400   62.8414 C.2       1             0.0383
     15 N3         26.2558   23.2039   62.0126 N.pl3     1            -0.5531
     16 C11        24.7733   20.4308   62.3744 C.3       1             0.0188
     17 C12        22.8728   18.8281   63.1979 C.3       1             0.1234
     18 C13        21.6799   15.2521   63.5767 C.ar      1            -0.0914
     19 C14        22.9391   14.6452   63.6078 C.ar      1            -0.1619
     20 C15        23.0171   13.2679   63.6823 C.ar      1             0.1019
     21 N4         21.9261   12.5293   63.7238 N.ar      1            -0.4622
     22 C16        20.7202   13.0610   63.6967 C.ar      1             0.1073
     23 C17        20.5499   14.4302   63.6283 C.ar      1            -0.1144
     24 H2         23.5575   15.9520   61.8277 H         1             0.0845
     25 H3         22.8146   17.2147   60.7930 H         1             0.1024
     26 H4         25.1935   17.5678   62.7289 H         1             0.1053
     27 H5         25.1710   17.8819   60.9528 H         1             0.1048
     28 H6         23.9741   19.8401   59.9984 H         1             0.1600
     29 H7         22.2942   19.8214   60.7031 H         1             0.1477
     30 H8         24.8184   21.9006   60.0963 H         1             0.1321
     31 H9         23.3083   22.7812   60.4309 H         1             0.1485
     32 H10        23.3470   24.5753   62.4311 H         1             0.1472
     33 H11        25.3505   25.7904   63.7469 H         1             0.1501
     34 H12        27.5544   24.4744   63.2173 H         1             0.1789
     35 H13        26.8821   22.5518   61.6611 H         1             0.4169
     36 H14        24.8903   20.6886   63.4269 H         1             0.1405
     37 H15        25.7144   20.4213   61.8243 H         1             0.1540
     38 H16        22.0033   19.4843   63.1577 H         1             0.0951
     39 H17        23.3351   18.8718   64.1840 H         1             0.0830
     40 H18        23.8371   15.2440   63.5738 H         1             0.1484
     41 H19        23.9852   12.7898   63.7064 H         1             0.1657
     42 H20        19.8535   12.4176   63.7328 H         1             0.1699
     43 H21        19.5589   14.8592   63.6107 H         1             0.1493
@<TRIPOS>BOND
     1    1    2 2 
     2    2    3 am
     3    2   18 1 
     4    3   17 1 
     5    3    4 1 
     6    4    5 1 
     7    4   24 1 
     8    4   25 1 
     9    5    6 1 
    10    5   26 1 
    11    5   27 1 
    12    6   16 1 
    13    6    7 1 
    14    6   17 1 
    15    7    8 1 
    16    7   28 1 
    17    7   29 1 
    18    8    9 1 
    19    8   10 1 
    20    8   16 1 
    21   10   11 1 
    22   10   30 1 
    23   10   31 1 
    24   11   15 1 
    25   11   12 2 
    26   12   13 1 
    27   12   32 1 
    28   13   14 2 
    29   13   33 1 
    30   14   15 1 
    31   14   34 1 
    32   15   35 1 
    33   16   36 1 
    34   16   37 1 
    35   17   38 1 
    36   17   39 1 
    37   18   23 ar
    38   18   19 ar
    39   19   20 ar
    40   19   40 1 
    41   20   21 ar
    42   20   41 1 
    43   21   22 ar
    44   22   23 ar
    45   22   42 1 
    46   23   43 1 
##########                 Name:            E29705858
##########          Protonation:                   36
##########               SMILES:   c1cc2c(c[nH]c2nc1)S(=O)(=O)N3CC[NH2+]CC3
##########            Long Name:   3-piperazin-4-ium-1-ylsulfonyl-1H-pyrrolo[2,3-b]pyridine
##########          FlexRecCode: 1
##########               Number:                  171
##########   Ligand Source File: /raidb/db2/rgc/leads-emolecules-300/leads-lt300-emolecules-1d-0000185.db2.gz
##########           GlobalRank: 1670
##########                 Rank:                    1
##########               Setnum:                   12
##########             Matchnum:                 1403
##########                Cloud:                    1
##########        Electrostatic:           -33.679935
##########        Van der Waals:           -21.468145
##########  Ligand Polar Desolv:            13.616165
########## Ligand Apolar Desolv:            -0.376816
##########      Internal Energy:             0.000000
##########      Receptor Energy: 0.0
########## Receptor Desolvation:             0.000000
########## Receptor Hydrophobic:             0.000000
##########         Total Energy: -41.91
##########        Ligand Charge:             1.000000
##########            Arbitrary:    +999.9990
##########     heavy atom count:   18
##########           pose count:    1
##########        Ligand Energy:             0.000000
# num electro vdwattr vdwrepu polsolv apolsol rdesolv rhydroe totalscore fullpol fullapo
#   1    0.80   -3.85    1.83   -5.03    0.73    0.00    0.00      -5.52   -9.79    1.42
#   2    0.58   -3.49    1.67   16.51   -0.10    0.00    0.00      15.17   35.93   -0.21
#   3   -9.73   -4.09    5.77   -4.10    0.68    0.00    0.00     -11.45   -8.62    1.44
#   4    8.46   -1.09    0.07   -9.26    0.60    0.00    0.00      -1.22  -21.62    1.39
#   5   -1.29   -0.95    0.13    0.79   -0.23    0.00    0.00      -1.56    1.62   -0.48
#   6    0.52   -1.24    0.26    0.11   -0.22    0.00    0.00      -0.58    0.24   -0.48
#   7   12.68   -1.56    0.58   -6.79    0.35    0.00    0.00       5.26  -17.14    0.89
#   8  -12.98   -0.05    0.00    6.78    0.21    0.00    0.00      -6.03   18.15    0.56
#   9  -12.20   -0.04    0.00    6.33    0.19    0.00    0.00      -5.72   19.16    0.57
#  10    0.41   -0.59    0.04    0.00   -0.16    0.00    0.00      -0.30    0.00   -0.48
#  11   -1.00   -0.55    0.03    0.49   -0.16    0.00    0.00      -1.19    1.43   -0.47
#  12   -0.77   -1.65    0.34   -4.18   -0.13    0.00    0.00      -6.40   -9.66   -0.29
#  13   -0.18   -1.91    0.63    1.14   -0.41    0.00    0.00      -0.73    2.68   -0.97
#  14    0.64   -2.23    0.74   -2.94    0.56    0.00    0.00      -3.23   -6.19    1.18
#  15    0.46   -2.27    0.61    0.94   -1.26    0.00    0.00      -1.53    1.72   -2.31
#  16   -2.73   -4.38    2.65   -2.58    1.27    0.00    0.00      -5.77   -4.12    2.03
#  17    0.47   -3.80    1.46    0.65   -0.65    0.00    0.00      -1.87    0.97   -0.98
#  18   -0.65   -2.28    0.50   -1.46   -0.30    0.00    0.00      -4.18   -2.34   -0.48
#  19   -0.32   -1.61    0.26   -0.41   -0.28    0.00    0.00      -2.36   -0.69   -0.48
#  20   -0.27   -1.70    0.42   -0.58   -0.23    0.00    0.00      -2.36   -1.13   -0.44
#  21   -1.64   -0.33    0.04    1.44   -0.10    0.00    0.00      -0.59    3.87   -0.28
#  22   -1.30   -0.63    0.96    0.73   -0.09    0.00    0.00      -0.32    2.07   -0.25
#  23   -4.16   -0.69    0.54    2.89   -0.11    0.00    0.00      -1.54    7.09   -0.28
#  24   -2.97   -0.68    0.61    1.45   -0.10    0.00    0.00      -1.71    3.86   -0.28
#  25   -2.17   -0.14    0.01    0.96   -0.04    0.00    0.00      -1.38    7.56   -0.28
#  26   -1.74   -0.24    0.03    0.78   -0.06    0.00    0.00      -1.23    3.76   -0.28
#  27   -1.05   -0.19    0.02    0.32   -0.03    0.00    0.00      -0.94    1.92   -0.19
#  28   -1.27   -0.19    0.02    0.82   -0.06    0.00    0.00      -0.68    4.05   -0.28
#  29   -0.52   -0.40    0.13    1.10   -0.08    0.00    0.00       0.23    3.98   -0.28
#  30   -1.43   -0.04    0.00    2.04    0.23    0.00    0.00       0.80    5.32    0.59
#  31   -0.19   -1.69    2.45    1.48   -0.19    0.00    0.00       1.87    2.24   -0.28
#  32    0.63   -0.87    1.40    1.94   -0.15    0.00    0.00       2.95    3.73   -0.28
#  33    1.26   -0.27    0.02    1.28   -0.07    0.00    0.00       2.22    3.78   -0.21
@<TRIPOS>MOLECULE
E29705858
   33    35     0     0     0
SMALL
USER_CHARGES


@<TRIPOS>ATOM
      1 O1         22.8280   18.2575   64.5083 O.2       1            -0.9415
      2 S1         22.0074   17.5714   63.5727 S.o2      1             2.7176
      3 O2         20.5889   17.5762   63.6563 O.2       1            -0.9330
      4 N1         22.3953   18.1668   62.0769 N.pl3     1            -1.0117
      5 C1         21.3576   18.7082   61.1858 C.3       1             0.0964
      6 C2         21.8089   20.0884   60.6968 C.3       1            -0.0230
      7 N2         23.1381   19.9783   60.0826 N.4       1            -0.5017
      8 H1         23.1111   19.2885   59.3468 H         1             0.4311
      9 H2         23.4031   20.8715   59.6950 H         1             0.4355
     10 C3         24.1242   19.5753   61.0931 C.3       1            -0.0262
     11 C4         23.7882   18.1748   61.6039 C.3       1             0.0920
     12 C5         22.5082   15.8825   63.6071 C.2       1            -0.7688
     13 C6         23.7691   15.4224   63.6228 C.2       1             0.2249
     14 N3         23.7656   14.0534   63.6491 N.pl3     1            -0.5627
     15 C7         22.4733   13.5860   63.6510 C.ar      1             0.2827
     16 N4         21.9485   12.3679   63.6716 N.ar      1            -0.4815
     17 C8         20.6466   12.1764   63.6681 C.ar      1             0.1434
     18 C9         19.7563   13.2392   63.6428 C.ar      1            -0.1735
     19 C10        20.2435   14.5323   63.6206 C.ar      1            -0.0587
     20 C11        21.6289   14.7124   63.6302 C.ar      1            -0.0884
     21 H3         21.2239   18.0430   60.3327 H         1             0.1062
     22 H4         20.4187   18.8020   61.7315 H         1             0.1357
     23 H5         21.0982   20.4634   59.9606 H         1             0.1488
     24 H6         21.8547   20.7761   61.5413 H         1             0.1346
     25 H7         25.1195   19.5723   60.6488 H         1             0.1508
     26 H8         24.0999   20.2785   61.9255 H         1             0.1350
     27 H9         24.4557   17.9161   62.4261 H         1             0.1329
     28 H10        23.9043   17.4549   60.7938 H         1             0.1078
     29 H11        24.6548   16.0402   63.6157 H         1             0.2042
     30 H12        24.5590   13.4955   63.6638 H         1             0.4334
     31 H13        20.2623   11.1673   63.6851 H         1             0.1722
     32 H14        18.6916   13.0581   63.6400 H         1             0.1498
     33 H15        19.5731   15.3787   63.6005 H         1             0.1355
@<TRIPOS>BOND
     1    1    2 2 
     2    2    3 2 
     3    2    4 1 
     4    2   12 1 
     5    4   11 1 
     6    4    5 1 
     7    5    6 1 
     8    5   21 1 
     9    5   22 1 
    10    6    7 1 
    11    6   23 1 
    12    6   24 1 
    13    7    8 1 
    14    7    9 1 
    15    7   10 1 
    16   10   11 1 
    17   10   25 1 
    18   10   26 1 
    19   11   27 1 
    20   11   28 1 
    21   12   20 1 
    22   12   13 2 
    23   13   14 1 
    24   13   29 1 
    25   14   15 1 
    26   14   30 1 
    27   15   20 ar
    28   15   16 ar
    29   16   17 ar
    30   17   18 ar
    31   17   31 1 
    32   18   19 ar
    33   18   32 1 
    34   19   20 ar
    35   19   33 1 
##########                 Name:            E25887464
##########          Protonation:                  100
##########               SMILES:   Cc1ccc2c(c1)[nH]/c(=N/C(=N\C(=O)c3ccccc3)/N)/o2
##########            Long Name:   -[amino-[(Z)-(5-methyl-3H-1,3-benzoxazol-2-ylidene)amino]methylene]benzamide
##########          FlexRecCode: 1
##########               Number:                  135
##########   Ligand Source File: /raidb/db2/rgc/leads-emolecules-300/leads-emolecules-2g-0000013.db2.gz
##########           GlobalRank: 1715
##########                 Rank:                    1
##########               Setnum:                   48
##########             Matchnum:                 1668
##########                Cloud:                    1
##########        Electrostatic:           -14.004747
##########        Van der Waals:           -33.232971
##########  Ligand Polar Desolv:             8.358299
########## Ligand Apolar Desolv:            -2.982621
##########      Internal Energy:             0.000000
##########      Receptor Energy: 0.0
########## Receptor Desolvation:             0.000000
########## Receptor Hydrophobic:             0.000000
##########         Total Energy: -41.86
##########        Ligand Charge:             0.000000
##########            Arbitrary:    +999.9990
##########     heavy atom count:   22
##########           pose count:    1
##########        Ligand Energy:             0.000000
# num electro vdwattr vdwrepu polsolv apolsol rdesolv rhydroe totalscore fullpol fullapo
#   1    3.21   -1.84    1.01   -0.35   -0.08    0.00    0.00       1.94   -0.86   -0.20
#   2    1.01   -1.72    0.35   -0.13   -0.18    0.00    0.00      -0.67   -0.29   -0.41
#   3    1.20   -1.68    0.34   -0.23   -0.18    0.00    0.00      -0.56   -0.56   -0.45
#   4    0.32   -1.60    0.23   -0.13   -0.21    0.00    0.00      -1.39   -0.30   -0.47
#   5    0.00   -1.76    0.58   -0.01   -0.16    0.00    0.00      -1.35   -0.03   -0.35
#   6   -1.47   -1.42    0.26    0.11    0.10    0.00    0.00      -2.40    0.25    0.23
#   7    4.72   -2.31    0.92   -1.10   -1.08    0.00    0.00       1.15   -2.24   -2.21
#   8   -0.92   -3.49    2.90    0.27    0.98    0.00    0.00      -0.25    0.54    1.93
#   9   -0.41   -2.41    2.28    0.01   -0.38    0.00    0.00      -0.91    0.03   -0.78
#  10    1.57   -1.83    0.43   -0.21   -0.24    0.00    0.00      -0.27   -0.39   -0.45
#  11   -4.45   -2.71    1.16    2.76    1.37    0.00    0.00      -1.87    4.98    2.48
#  12    4.50   -2.08    0.61   -3.02   -2.83    0.00    0.00      -2.81   -5.13   -4.80
#  13   -2.97   -2.31    0.44    1.19    0.55    0.00    0.00      -3.11    1.89    0.87
#  14   -5.02   -2.17    0.51    4.19    1.82    0.00    0.00      -0.67    7.11    3.08
#  15    7.03   -2.09    0.34   -4.04   -0.40    0.00    0.00       0.83   -6.49   -0.65
#  16  -10.58   -3.32    1.90    5.26    0.21    0.00    0.00      -6.53    9.03    0.36
#  17   -1.40   -2.43    0.58    1.06   -0.27    0.00    0.00      -2.47    1.60   -0.41
#  18   -0.95   -2.64    0.83    0.31   -0.28    0.00    0.00      -2.72    0.51   -0.45
#  19   -1.66   -2.29    0.60    0.25   -0.31    0.00    0.00      -3.41    0.39   -0.47
#  20   -0.90   -2.72    0.78    0.12   -0.31    0.00    0.00      -3.03    0.18   -0.47
#  21   -0.56   -4.09    1.75    0.36   -0.30    0.00    0.00      -2.85    0.55   -0.47
#  22   -0.34   -3.35    1.02    0.57   -0.30    0.00    0.00      -2.39    0.87   -0.45
#  23   -1.77   -0.40    0.19    0.21   -0.08    0.00    0.00      -1.86    0.69   -0.28
#  24   -2.42   -0.90    1.09    0.31   -0.11    0.00    0.00      -2.03    0.78   -0.28
#  25   -2.46   -1.09    1.89    0.25   -0.12    0.00    0.00      -1.54    0.57   -0.28
#  26   -1.60   -0.38    0.09    0.50   -0.08    0.00    0.00      -1.47    1.77   -0.28
#  27   -0.34   -0.41    0.06    0.48   -0.11    0.00    0.00      -0.31    1.23   -0.28
#  28   -0.75   -0.11    0.02    0.09    0.32    0.00    0.00      -0.43    0.16    0.60
#  29   -2.83   -0.41    0.06    0.46   -0.13    0.00    0.00      -2.85    0.97   -0.28
#  30    1.22   -0.04    0.00   -0.07    0.23    0.00    0.00       1.34   -0.12    0.40
#  31    0.80   -0.04    0.00   -0.07    0.35    0.00    0.00       1.04   -0.12    0.60
#  32    2.11   -0.67    0.30   -0.46   -0.15    0.00    0.00       1.13   -0.86   -0.27
#  33    1.29   -0.47    0.12    0.04   -0.13    0.00    0.00       0.85    0.08   -0.28
#  34    1.05   -0.66    0.37    0.17   -0.15    0.00    0.00       0.77    0.31   -0.28
#  35   -0.20   -1.73    2.92   -0.12   -0.19    0.00    0.00       0.68   -0.18   -0.28
#  36   -0.02   -0.78    0.20   -0.67   -0.16    0.00    0.00      -1.44   -1.07   -0.26
@<TRIPOS>MOLECULE
E25887464
   36    38     0     0     0
SMALL
USER_CHARGES


@<TRIPOS>ATOM
      1 C1         22.3801   21.1025   60.5674 C.3       1            -0.1184
      2 C2         21.9921   19.8498   61.3096 C.ar      1            -0.0549
      3 C3         22.7777   19.3954   62.3550 C.ar      1            -0.1028
      4 C4         22.4303   18.2486   63.0411 C.ar      1            -0.0687
      5 C5         21.2887   17.5471   62.6830 C.ar      1             0.0189
      6 O1         20.7132   16.4179   63.1624 O.3       1            -0.2397
      7 C6         19.6024   16.1534   62.4575 C.2       1             0.5829
      8 N1         19.4380   17.1103   61.5051 N.pl3     1            -0.5989
      9 C7         20.4975   18.0061   61.6297 C.ar      1             0.0770
     10 C8         20.8507   19.1613   60.9488 C.ar      1            -0.0994
     11 N2         18.7943   15.1228   62.6571 N.2       1            -0.5297
     12 C9         19.0624   14.2404   63.6260 C.2       1             0.6605
     13 N3         19.8366   13.1404   63.3568 N.pl3     1            -0.8453
     14 N4         18.5777   14.4298   64.8522 N.2       1            -0.6479
     15 C10        17.8532   15.5193   65.1233 C.2       1             0.5272
     16 O2         18.3412   16.6268   64.9796 O.2       1            -0.5177
     17 C11        16.4569   15.3811   65.5984 C.ar      1            -0.1132
     18 C12        15.4087   15.9320   64.8613 C.ar      1            -0.0632
     19 C13        14.1103   15.8000   65.3089 C.ar      1            -0.1388
     20 C14        13.8470   15.1231   66.4865 C.ar      1            -0.1002
     21 C15        14.8825   14.5743   67.2219 C.ar      1            -0.1356
     22 C16        16.1845   14.6944   66.7813 C.ar      1            -0.0713
     23 H1         23.3013   21.5043   60.9893 H         1             0.0802
     24 H2         22.5350   20.8676   59.5143 H         1             0.0762
     25 H3         21.5847   21.8418   60.6616 H         1             0.0733
     26 H4         23.6670   19.9406   62.6351 H         1             0.1473
     27 H5         23.0470   17.8981   63.8554 H         1             0.1463
     28 H6         18.7164   17.1598   60.8587 H         1             0.4555
     29 H7         20.2366   19.5198   60.1357 H         1             0.1418
     30 H8         20.1895   13.0026   62.4639 H         1             0.4069
     31 H9         20.0311   12.5005   64.0593 H         1             0.4117
     32 H10        15.6131   16.4613   63.9423 H         1             0.1370
     33 H11        13.2978   16.2263   64.7392 H         1             0.1250
     34 H12        12.8291   15.0229   66.8331 H         1             0.1230
     35 H13        14.6707   14.0470   68.1403 H         1             0.1253
     36 H14        16.9915   14.2615   67.3538 H         1             0.1299
@<TRIPOS>BOND
     1    1    2 1 
     2    1   23 1 
     3    1   24 1 
     4    1   25 1 
     5    2   10 ar
     6    2    3 ar
     7    3    4 ar
     8    3   26 1 
     9    4    5 ar
    10    4   27 1 
    11    5    9 ar
    12    5    6 1 
    13    6    7 1 
    14    7    8 1 
    15    7   11 2 
    16    8    9 1 
    17    8   28 1 
    18    9   10 ar
    19   10   29 1 
    20   11   12 1 
    21   12   13 1 
    22   12   14 2 
    23   13   30 1 
    24   13   31 1 
    25   14   15 1 
    26   15   16 2 
    27   15   17 1 
    28   17   22 ar
    29   17   18 ar
    30   18   19 ar
    31   18   32 1 
    32   19   20 ar
    33   19   33 1 
    34   20   21 ar
    35   20   34 1 
    36   21   22 ar
    37   21   35 1 
    38   22   36 1 
##########                 Name:            E44636699
##########          Protonation:                   93
##########               SMILES:   C[NH+](C)CCNC(=O)c1cc(cnc1)c2ccccc2F
##########            Long Name:   2-[[5-(2-fluorophenyl)pyridine-3-carbonyl]amino]ethyl-dimethyl-ammonium
##########          FlexRecCode: 1
##########               Number:                  734
##########   Ligand Source File: /raidb/db2/rgc/leads-emolecules-300/leads-emolecules-3-cj-0000004.db2.gz
##########           GlobalRank: 1739
##########                 Rank:                    1
##########               Setnum:                  164
##########             Matchnum:                  649
##########                Cloud:                    1
##########        Electrostatic:           -18.297998
##########        Van der Waals:           -28.762457
##########  Ligand Polar Desolv:             8.641275
########## Ligand Apolar Desolv:            -3.424186
##########      Internal Energy:             0.000000
##########      Receptor Energy: 0.0
########## Receptor Desolvation:             0.000000
########## Receptor Hydrophobic:             0.000000
##########         Total Energy: -41.84
##########        Ligand Charge:             1.000000
##########            Arbitrary:    +999.9990
##########     heavy atom count:   21
##########           pose count:    1
##########        Ligand Energy:             0.000000
# num electro vdwattr vdwrepu polsolv apolsol rdesolv rhydroe totalscore fullpol fullapo
#   1    1.24   -1.44    0.63   -0.57   -0.19    0.00    0.00      -0.33   -1.45   -0.48
#   2    6.98   -0.87    0.12   -4.04    0.16    0.00    0.00       2.36  -11.87    0.46
#   3   -8.65   -0.02    0.00    3.29    0.12    0.00    0.00      -5.26   15.94    0.56
#   4    0.63   -0.63    0.06   -0.52   -0.13    0.00    0.00      -0.61   -1.84   -0.47
#   5    0.33   -0.64    0.04    0.07   -0.14    0.00    0.00      -0.34    0.18   -0.36
#   6   -0.76   -0.60    0.05    0.56   -0.13    0.00    0.00      -0.88    1.75   -0.41
#   7    2.87   -1.43    0.58   -5.25    0.84    0.00    0.00      -2.38  -14.38    2.31
#   8    0.22   -1.45    0.25    3.24   -0.28    0.00    0.00       1.97    7.60   -0.66
#   9   -0.23   -1.87    0.50   -2.37    0.18    0.00    0.00      -3.78   -5.14    0.40
#  10   -0.86   -1.69    0.40   -0.99   -0.19    0.00    0.00      -3.33   -2.09   -0.41
#  11    0.04   -2.10    0.83   -0.10   -0.21    0.00    0.00      -1.54   -0.19   -0.42
#  12   -0.75   -1.96    0.42   -0.42   -0.21    0.00    0.00      -2.93   -0.74   -0.37
#  13    0.59   -2.84    1.64    0.34   -0.53    0.00    0.00      -0.80    0.56   -0.87
#  14   -1.93   -2.45    0.57   -2.47    1.28    0.00    0.00      -4.99   -3.91    2.03
#  15    0.41   -1.86    0.40    1.08   -0.53    0.00    0.00      -0.49    1.90   -0.93
#  16   -0.90   -2.24    0.55   -0.30   -0.24    0.00    0.00      -3.13   -0.48   -0.39
#  17   -1.02   -2.52    0.90   -0.36   -0.26    0.00    0.00      -3.25   -0.60   -0.44
#  18   -1.75   -2.63    1.01   -0.60   -0.29    0.00    0.00      -4.26   -0.98   -0.47
#  19   -0.81   -2.66    0.77   -0.42   -0.30    0.00    0.00      -3.43   -0.66   -0.47
#  20   -0.65   -3.56    1.13   -0.59   -0.31    0.00    0.00      -3.98   -0.88   -0.47
#  21    0.51   -3.19    0.91    0.07   -0.21    0.00    0.00      -1.92    0.11   -0.33
#  22   -0.27   -4.13    6.33   -0.22   -0.30    0.00    0.00       1.40   -0.33   -0.44
#  23   -3.21   -0.39    0.09    1.41   -0.10    0.00    0.00      -2.19    4.09   -0.28
#  24   -3.17   -0.48    0.28    1.37   -0.09    0.00    0.00      -2.09    4.48   -0.28
#  25   -4.10   -0.86    0.93    1.66   -0.12    0.00    0.00      -2.48    4.00   -0.28
#  26   -1.06   -0.20    0.03    0.65   -0.05    0.00    0.00      -0.62    3.93   -0.28
#  27   -1.20   -0.13    0.01    0.41   -0.03    0.00    0.00      -0.94    3.02   -0.23
#  28   -1.42   -0.39    0.11    1.09   -0.07    0.00    0.00      -0.68    4.15   -0.28
#  29   -1.55   -0.19    0.01    1.18   -0.06    0.00    0.00      -0.61    5.47   -0.28
#  30   -2.27   -0.29    0.05    1.88   -0.09    0.00    0.00      -0.72    6.03   -0.28
#  31   -0.77   -0.17    0.01    0.40   -0.05    0.00    0.00      -0.58    2.19   -0.28
#  32   -0.67   -0.22    0.03    0.38   -0.04    0.00    0.00      -0.51    2.07   -0.21
#  33   -1.57   -0.04    0.00    2.93    0.12    0.00    0.00       1.44   10.79    0.44
#  34    2.60   -0.67    0.50    0.38   -0.11    0.00    0.00       2.71    0.95   -0.27
#  35   -0.08   -0.90    0.60    0.35   -0.15    0.00    0.00      -0.18    0.63   -0.27
#  36    0.05   -0.36    0.06    1.98   -0.09    0.00    0.00       1.64    4.83   -0.22
#  37    1.87   -0.51    0.11    0.75   -0.14    0.00    0.00       2.09    1.49   -0.28
#  38    1.72   -0.53    0.14    0.93   -0.14    0.00    0.00       2.12    1.84   -0.28
#  39    1.44   -0.44    0.06    0.86   -0.14    0.00    0.00       1.77    1.66   -0.28
#  40   -0.18   -1.16    0.83    0.60   -0.18    0.00    0.00      -0.09    0.92   -0.28
@<TRIPOS>MOLECULE
E44636699
   40    41     0     0     0
SMALL
USER_CHARGES


@<TRIPOS>ATOM
      1 C1         23.1479   20.4306   60.0210 C.3       1            -0.0469
      2 N1         23.9680   19.3821   60.6426 N.4       1            -0.3827
      3 H1         24.6072   19.0053   59.9588 H         1             0.4306
      4 C2         24.7289   19.9544   61.7612 C.3       1            -0.0563
      5 C3         23.0962   18.3098   61.1410 C.3       1            -0.0243
      6 C4         23.9503   17.2179   61.7885 C.3       1             0.0956
      7 N2         23.0810   16.1486   62.2856 N.am      1            -0.7311
      8 C5         22.1416   16.4201   63.2132 C.2       1             0.5790
      9 O1         22.0156   17.5523   63.6374 O.2       1            -0.5161
     10 C6         21.2642   15.3409   63.7149 C.ar      1            -0.1992
     11 C7         19.9865   15.6336   64.2017 C.ar      1             0.0041
     12 C8         19.1997   14.5783   64.6630 C.ar      1            -0.0965
     13 C9         19.7128   13.2824   64.6217 C.ar      1             0.1559
     14 N3         20.9230   13.0480   64.1554 N.ar      1            -0.4773
     15 C10        21.6968   14.0138   63.7042 C.ar      1             0.1389
     16 C11        17.8361   14.8312   65.1909 C.ar      1            -0.0938
     17 C12        16.8663   15.4093   64.3746 C.ar      1            -0.0737
     18 C13        15.5995   15.6420   64.8703 C.ar      1            -0.1251
     19 C14        15.2904   15.3030   66.1756 C.ar      1            -0.0774
     20 C15        16.2474   14.7294   66.9920 C.ar      1            -0.1488
     21 C16        17.5185   14.4856   66.5048 C.ar      1             0.1147
     22 F1         18.4520   13.9200   67.3009 F         1            -0.1326
     23 H2         22.4574   20.8375   60.7595 H         1             0.1284
     24 H3         23.7948   21.2262   59.6511 H         1             0.1254
     25 H4         22.5833   20.0059   59.1909 H         1             0.1240
     26 H5         25.3373   19.1765   62.2225 H         1             0.1251
     27 H6         25.3757   20.7500   61.3913 H         1             0.1262
     28 H7         24.0384   20.3614   62.4999 H         1             0.1292
     29 H8         22.4057   18.7168   61.8798 H         1             0.1388
     30 H9         22.5315   17.8853   60.3111 H         1             0.1399
     31 H10        24.6407   16.8109   61.0497 H         1             0.0923
     32 H11        24.5150   17.6425   62.6184 H         1             0.0926
     33 H12        23.1814   15.2451   61.9472 H         1             0.4083
     34 H13        19.6191   16.6490   64.2202 H         1             0.1534
     35 H14        19.1104   12.4593   64.9768 H         1             0.1679
     36 H15        22.6800   13.7765   63.3259 H         1             0.1570
     37 H16        17.1055   15.6753   63.3556 H         1             0.1347
     38 H17        14.8476   16.0900   64.2377 H         1             0.1371
     39 H18        14.2976   15.4876   66.5584 H         1             0.1396
     40 H19        16.0008   14.4675   68.0102 H         1             0.1430
@<TRIPOS>BOND
     1    1    2 1 
     2    1   23 1 
     3    1   24 1 
     4    1   25 1 
     5    2    3 1 
     6    2    4 1 
     7    2    5 1 
     8    4   26 1 
     9    4   27 1 
    10    4   28 1 
    11    5    6 1 
    12    5   29 1 
    13    5   30 1 
    14    6    7 1 
    15    6   31 1 
    16    6   32 1 
    17    7    8 am
    18    7   33 1 
    19    8    9 2 
    20    8   10 1 
    21   10   15 ar
    22   10   11 ar
    23   11   12 ar
    24   11   34 1 
    25   12   13 ar
    26   12   16 1 
    27   13   14 ar
    28   13   35 1 
    29   14   15 ar
    30   15   36 1 
    31   16   21 ar
    32   16   17 ar
    33   17   18 ar
    34   17   37 1 
    35   18   19 ar
    36   18   38 1 
    37   19   20 ar
    38   19   39 1 
    39   20   21 ar
    40   20   40 1 
    41   21   22 1 
##########                 Name:            E36443781
##########          Protonation:                   23
##########               SMILES:   c1cc2cn[nH]c2cc1c3cc(cc4c3O[C@H](C4)C[NH3+])F
##########            Long Name:   [(2R)-5-fluoro-7-(1H-indazol-6-yl)-2,3-dihydrobenzofuran-2-yl]methylammonium
##########          FlexRecCode: 1
##########               Number:                  313
##########   Ligand Source File: /raidb/db2/rgc/leads-emolecules-300/leads-lt300-emolecules-1-0000181.db2.gz
##########           GlobalRank: 1739
##########                 Rank:                    1
##########               Setnum:                   10
##########             Matchnum:                 1371
##########                Cloud:                    1
##########        Electrostatic:           -20.604237
##########        Van der Waals:           -29.773193
##########  Ligand Polar Desolv:            11.681047
########## Ligand Apolar Desolv:            -3.147649
##########      Internal Energy:             0.000000
##########      Receptor Energy: 0.0
########## Receptor Desolvation:             0.000000
########## Receptor Hydrophobic:             0.000000
##########         Total Energy: -41.84
##########        Ligand Charge:             1.000000
##########            Arbitrary:    +999.9990
##########     heavy atom count:   21
##########           pose count:    1
##########        Ligand Energy:             0.000000
# num electro vdwattr vdwrepu polsolv apolsol rdesolv rhydroe totalscore fullpol fullapo
#   1    7.27   -1.16    0.16  -10.21    0.35    0.00    0.00      -3.59  -25.07    0.86
#   2   -4.00   -0.01    0.00    4.08    0.12    0.00    0.00       0.18   18.98    0.58
#   3   -6.11   -0.04    0.00    6.27    0.19    0.00    0.00       0.31   20.26    0.60
#   4   -7.01   -0.01    0.00    3.77    0.12    0.00    0.00      -3.13   17.62    0.56
#   5   -0.01   -1.62    0.57    0.59   -0.22    0.00    0.00      -0.69    1.28   -0.47
#   6    0.01   -1.04    0.22    0.53   -0.07    0.00    0.00      -0.36    1.19   -0.16
#   7    0.10   -0.88    0.13   -1.05   -0.12    0.00    0.00      -1.82   -2.55   -0.28
#   8   -0.35   -1.66    0.41   -1.13   -0.21    0.00    0.00      -2.93   -2.41   -0.44
#   9    0.69   -1.74    0.42    1.23   -0.15    0.00    0.00       0.46    2.53   -0.30
#  10   -3.41   -2.31    1.36   -3.17    0.41    0.00    0.00      -7.11   -6.75    0.88
#  11   -0.13   -1.75    0.28   -0.48   -0.22    0.00    0.00      -2.30   -0.83   -0.38
#  12   -0.39   -2.61    1.14   -0.72   -0.27    0.00    0.00      -2.85   -1.15   -0.44
#  13    0.43   -2.89    0.90   -0.10   -0.22    0.00    0.00      -1.86   -0.15   -0.34
#  14   -1.19   -5.18    8.46   -0.52   -0.32    0.00    0.00       1.25   -0.78   -0.48
#  15   -0.22   -2.07    0.50   -0.72   -0.25    0.00    0.00      -2.76   -1.34   -0.47
#  16   -0.06   -2.04    0.52    0.15   -0.23    0.00    0.00      -1.67    0.25   -0.38
#  17   -1.85   -2.75    1.02   -1.06   -0.25    0.00    0.00      -4.89   -1.81   -0.42
#  18   -0.50   -3.13    1.13   -0.18   -0.28    0.00    0.00      -2.97   -0.31   -0.47
#  19   -2.38   -2.59    0.95   -1.18   -0.27    0.00    0.00      -5.47   -1.91   -0.44
#  20    0.92   -2.30    0.50    0.36   -0.69    0.00    0.00      -1.20    0.55   -1.05
#  21   -2.44   -2.95    0.82   -0.93    0.85    0.00    0.00      -4.64   -1.41    1.29
#  22   -3.17   -3.70    1.37   -1.67    0.48    0.00    0.00      -6.69   -2.53    0.73
#  23    1.22   -2.64    0.66    0.36   -0.52    0.00    0.00      -0.92    0.56   -0.80
#  24   -0.95   -2.50    0.54   -0.91   -0.28    0.00    0.00      -4.09   -1.46   -0.44
#  25   -0.29   -0.80    0.59    3.95   -0.14    0.00    0.00       3.32    7.96   -0.28
#  26   -1.13   -1.05    1.59    2.51   -0.13    0.00    0.00       1.79    5.62   -0.28
#  27   -0.49   -0.29    0.06    1.37   -0.09    0.00    0.00       0.57    4.43   -0.28
#  28   -0.48   -0.25    0.07    0.65   -0.06    0.00    0.00      -0.06    2.99   -0.28
#  29   -0.06   -0.37    0.07    1.23   -0.09    0.00    0.00       0.78    3.69   -0.27
#  30   -0.02   -0.80    0.43    0.40   -0.16    0.00    0.00      -0.14    0.71   -0.28
#  31   -0.12   -0.43    0.10    0.76   -0.12    0.00    0.00       0.19    1.84   -0.28
#  32    1.36   -0.77    0.57    1.80   -0.14    0.00    0.00       2.81    3.57   -0.28
#  33    1.05   -1.05    0.94    2.00   -0.17    0.00    0.00       2.77    3.37   -0.28
#  34    2.25   -0.44    0.10    1.41   -0.14    0.00    0.00       3.17    2.86   -0.28
#  35    0.26   -0.09    0.00    1.73    0.26    0.00    0.00       2.16    2.71    0.40
#  36    0.58   -0.67    0.25    0.54   -0.16    0.00    0.00       0.54    0.94   -0.28
@<TRIPOS>MOLECULE
E36443781
   36    39     0     0     0
SMALL
USER_CHARGES


@<TRIPOS>ATOM
      1 N1         22.8695   19.2201   62.2547 N.4       1            -0.6367
      2 H1         23.6766   18.6274   62.3788 H         1             0.4371
      3 H2         23.1085   20.1694   62.4993 H         1             0.4418
      4 H3         22.5721   19.1860   61.2910 H         1             0.4429
      5 C1         21.7795   18.7509   63.1205 C.3       1             0.0013
      6 C2         21.4170   17.3115   62.7494 C.3       1             0.0449
      7 C3         22.5807   16.3491   63.0858 C.3       1            -0.0969
      8 C4         21.8381   15.1104   63.5492 C.ar      1            -0.1396
      9 C5         20.5304   15.4939   63.8084 C.ar      1             0.1000
     10 O1         20.3508   16.8240   63.5815 O.3       1            -0.3014
     11 C6         19.6157   14.5249   64.2484 C.ar      1            -0.0184
     12 C7         20.0276   13.2073   64.4229 C.ar      1            -0.1054
     13 C8         21.3367   12.8485   64.1642 C.ar      1             0.0978
     14 F1         21.7347   11.5691   64.3366 F         1            -0.1243
     15 C9         22.2410   13.8046   63.7268 C.ar      1            -0.0992
     16 C10        18.2101   14.9053   64.5277 C.ar      1            -0.0059
     17 C11        17.4166   15.4411   63.5051 C.ar      1            -0.1407
     18 C12        16.1245   15.7955   63.7451 C.ar      1            -0.0361
     19 C13        15.5767   15.6252   65.0246 C.ar      1            -0.1724
     20 C14        14.3015   15.8893   65.5800 C.2       1             0.0728
     21 N2         14.3135   15.5442   66.8349 N.2       1            -0.2393
     22 N3         15.5746   15.0409   67.1762 N.pl3     1            -0.5018
     23 C15        16.3682   15.0866   66.0577 C.ar      1             0.1289
     24 C16        17.6851   14.7235   65.7994 C.ar      1            -0.1210
     25 H4         22.1008   18.7879   64.1614 H         1             0.1557
     26 H5         20.9076   19.3912   62.9864 H         1             0.1456
     27 H6         21.1471   17.2422   61.6956 H         1             0.1163
     28 H7         23.1788   16.1362   62.1997 H         1             0.1119
     29 H8         23.2016   16.7532   63.8853 H         1             0.1077
     30 H9         19.3221   12.4631   64.7617 H         1             0.1539
     31 H10        23.2642   13.5248   63.5242 H         1             0.1476
     32 H11        17.8338   15.5748   62.5179 H         1             0.1255
     33 H12        15.5211   16.2081   62.9500 H         1             0.1333
     34 H13        13.4586   16.3078   65.0501 H         1             0.1975
     35 H14        15.8410   14.7169   68.0507 H         1             0.4453
     36 H15        18.2976   14.3063   66.5850 H         1             0.1312
@<TRIPOS>BOND
     1    1    2 1 
     2    1    3 1 
     3    1    4 1 
     4    1    5 1 
     5    5    6 1 
     6    5   25 1 
     7    5   26 1 
     8    6   10 1 
     9    6    7 1 
    10    6   27 1 
    11    7    8 1 
    12    7   28 1 
    13    7   29 1 
    14    8   15 ar
    15    8    9 ar
    16    9   10 1 
    17    9   11 ar
    18   11   12 ar
    19   11   16 1 
    20   12   13 ar
    21   12   30 1 
    22   13   14 1 
    23   13   15 ar
    24   15   31 1 
    25   16   24 ar
    26   16   17 ar
    27   17   18 ar
    28   17   32 1 
    29   18   19 ar
    30   18   33 1 
    31   19   23 ar
    32   19   20 1 
    33   20   21 2 
    34   20   34 1 
    35   21   22 1 
    36   22   23 1 
    37   22   35 1 
    38   23   24 ar
    39   24   36 1 
##########                 Name:            E36449950
##########          Protonation:                   27
##########               SMILES:   CN(Cc1[nH]c2ccc(cc2n1)F)C(=O)[C@H]3C[C@@H](C[NH2+]3)N
##########            Long Name:   -fluoro-1H-benzimidazol-2-yl)methyl]-N-methyl-pyrrolidin-1-ium-2-carboxamide
##########          FlexRecCode: 1
##########               Number:                  590
##########   Ligand Source File: /raidb/db2/rgc/leads-emolecules-300/leads-emolecules-2e-0000079.db2.gz
##########           GlobalRank: 1748
##########                 Rank:                    1
##########               Setnum:                  118
##########             Matchnum:                 2873
##########                Cloud:                    1
##########        Electrostatic:           -17.976032
##########        Van der Waals:           -24.570469
##########  Ligand Polar Desolv:             2.367261
########## Ligand Apolar Desolv:            -1.648745
##########      Internal Energy:             0.000000
##########      Receptor Energy: 0.0
########## Receptor Desolvation:             0.000000
########## Receptor Hydrophobic:             0.000000
##########         Total Energy: -41.83
##########        Ligand Charge:             1.000000
##########            Arbitrary:    +999.9990
##########     heavy atom count:   21
##########           pose count:    1
##########        Ligand Energy:             0.000000
# num electro vdwattr vdwrepu polsolv apolsol rdesolv rhydroe totalscore fullpol fullapo
#   1   -1.34   -1.22    0.26    0.49   -0.25    0.00    0.00      -2.05    1.08   -0.54
#   2    8.99   -1.08    0.07   -5.00    0.80    0.00    0.00       3.79  -12.18    1.95
#   3   -1.77   -1.27    0.30    1.39   -0.20    0.00    0.00      -1.56    3.17   -0.46
#   4   -0.47   -1.49    0.26    1.65   -0.93    0.00    0.00      -0.98    3.78   -2.13
#   5   -2.97   -2.06    0.86   -1.94    0.95    0.00    0.00      -5.17   -4.33    2.11
#   6    0.31   -1.63    0.44    0.05   -0.36    0.00    0.00      -1.18    0.11   -0.79
#   7   -0.55   -1.62    0.27   -0.39   -0.28    0.00    0.00      -2.57   -0.67   -0.47
#   8    0.39   -2.11    0.36    0.11   -0.21    0.00    0.00      -1.45    0.18   -0.34
#   9   -0.12   -1.96    0.64   -0.28   -0.32    0.00    0.00      -2.04   -0.42   -0.48
#  10   -0.37   -2.63    0.73   -0.69   -0.27    0.00    0.00      -3.23   -1.17   -0.46
#  11   -0.01   -1.92    0.50   -0.29   -0.23    0.00    0.00      -1.95   -0.59   -0.47
#  12    0.03   -1.56    0.43    0.11   -0.34    0.00    0.00      -1.33    0.26   -0.78
#  13    1.49   -1.22    0.12   -2.97    0.47    0.00    0.00      -2.11   -7.32    1.16
#  14   -6.56   -0.95    0.07    3.84   -0.19    0.00    0.00      -3.79   11.79   -0.58
#  15    4.44   -1.37    0.28   -3.80    0.12    0.00    0.00      -0.33  -11.79    0.37
#  16   -0.09   -0.58    0.07    0.40   -0.07    0.00    0.00      -0.27    1.44   -0.26
#  17    2.09   -0.77    0.12   -1.04   -0.08    0.00    0.00       0.31   -3.40   -0.27
#  18   -0.43   -0.78    0.18    0.54   -0.11    0.00    0.00      -0.59    2.02   -0.41
#  19    0.37   -0.99    0.15   -5.83    0.46    0.00    0.00      -5.85  -20.46    1.62
#  20    0.12   -0.34    0.01   -0.06   -0.10    0.00    0.00      -0.36   -0.30   -0.52
#  21    3.34   -0.44    0.02   -3.25    0.18    0.00    0.00      -0.14  -15.68    0.89
#  22   -2.19   -0.01    0.00    2.05    0.07    0.00    0.00      -0.08   14.33    0.52
#  23   -2.58   -0.01    0.00    1.28    0.04    0.00    0.00      -1.27   16.60    0.58
#  24   -2.56   -0.67    0.60    0.84   -0.10    0.00    0.00      -1.89    2.25   -0.28
#  25   -1.55   -0.40    0.08    1.47   -0.08    0.00    0.00      -0.48    3.69   -0.21
#  26   -2.81   -0.54    0.30    0.27   -0.11    0.00    0.00      -2.88    0.69   -0.28
#  27   -0.96   -0.68    0.25    1.02   -0.12    0.00    0.00      -0.48    2.31   -0.26
#  28   -1.50   -0.63    0.57    0.83   -0.10    0.00    0.00      -0.84    2.26   -0.28
#  29    1.12   -0.31    0.04    0.16   -0.10    0.00    0.00       0.90    0.43   -0.28
#  30    0.79   -1.08    0.90    0.94   -0.16    0.00    0.00       1.40    1.67   -0.28
#  31   -0.27   -0.35    0.06    0.94   -0.10    0.00    0.00       0.29    2.73   -0.28
#  32   -2.02   -0.02    0.00    1.52    0.13    0.00    0.00      -0.39    7.25    0.60
#  33   -3.72   -0.41    0.36    1.46   -0.04    0.00    0.00      -2.35    7.28   -0.21
#  34   -1.90   -0.25    0.05    0.73   -0.06    0.00    0.00      -1.44    3.21   -0.27
#  35   -2.58   -0.38    0.14    0.55   -0.08    0.00    0.00      -2.35    1.83   -0.27
#  36   -0.54   -0.65    0.50    0.67   -0.08    0.00    0.00      -0.11    2.40   -0.28
#  37   -2.40   -0.01    0.00    1.50    0.11    0.00    0.00      -0.81    8.09    0.59
#  38    0.88   -0.02    0.00    2.12    0.14    0.00    0.00       3.11    9.06    0.58
#  39   -0.32   -0.07    0.00    0.36   -0.02    0.00    0.00      -0.05    5.69   -0.28
#  40    0.25   -0.10    0.00    0.61   -0.03    0.00    0.00       0.73    5.60   -0.28
@<TRIPOS>MOLECULE
E36449950
   40    42     0     0     0
SMALL
USER_CHARGES


@<TRIPOS>ATOM
      1 C1         22.3587   19.1814   59.9726 C.3       1             0.0563
      2 N1         22.8082   19.2302   61.3662 N.am      1            -0.5799
      3 C2         21.8466   19.0316   62.4533 C.3       1             0.1915
      4 C3         21.7689   17.5656   62.7938 C.2       1             0.2544
      5 N2         20.6661   16.9021   62.9848 N.2       1            -0.4678
      6 C4         20.9560   15.6072   63.2723 C.ar      1             0.0696
      7 C5         20.1724   14.4856   63.5579 C.ar      1            -0.0999
      8 C6         20.7788   13.2755   63.8152 C.ar      1             0.1010
      9 F1         20.0217   12.1910   64.0908 F         1            -0.1291
     10 C7         22.1639   13.1623   63.7928 C.ar      1            -0.1222
     11 C8         22.9495   14.2594   63.5127 C.ar      1            -0.0821
     12 C9         22.3554   15.4863   63.2511 C.ar      1             0.0424
     13 N3         22.8413   16.7419   62.9404 N.pl3     1            -0.5854
     14 C10        24.1064   19.4578   61.6480 C.2       1             0.5084
     15 O1         24.6000   18.9897   62.6520 O.2       1            -0.5251
     16 C11        24.9446   20.2936   60.7154 C.3       1             0.0060
     17 C12        24.3732   21.7033   60.6192 C.3       1            -0.1312
     18 C13        25.1102   22.4056   61.7740 C.3       1             0.0816
     19 N4         25.0767   23.8662   61.6210 N.3       1            -0.8248
     20 C14        26.5309   21.8479   61.5433 C.3       1            -0.0451
     21 N5         26.2951   20.4295   61.2425 N.4       1            -0.5019
     22 H1         26.3884   19.8825   62.0852 H         1             0.4405
     23 H2         26.9625   20.1113   60.5559 H         1             0.4349
     24 H3         23.2083   19.3499   59.3107 H         1             0.0829
     25 H4         21.9248   18.2033   59.7649 H         1             0.0741
     26 H5         21.6088   19.9545   59.8054 H         1             0.1030
     27 H6         22.1694   19.5919   63.3308 H         1             0.1170
     28 H7         20.8644   19.3839   62.1385 H         1             0.1336
     29 H8         19.0956   14.5672   63.5771 H         1             0.1472
     30 H9         22.6276   12.2084   63.9965 H         1             0.1499
     31 H10        24.0253   14.1648   63.4972 H         1             0.1374
     32 H11        23.7743   16.9902   62.8463 H         1             0.4271
     33 H12        24.9729   19.8352   59.7268 H         1             0.1665
     34 H13        24.6199   22.1612   59.6613 H         1             0.1317
     35 H14        23.2960   21.7013   60.7858 H         1             0.1128
     36 H15        24.7131   22.1012   62.7424 H         1             0.1262
     37 H16        24.2565   24.1576   61.1107 H         1             0.3644
     38 H17        25.1262   24.3250   62.5183 H         1             0.3531
     39 H18        27.0069   22.3460   60.6986 H         1             0.1352
     40 H19        27.1365   21.9546   62.4432 H         1             0.1457
@<TRIPOS>BOND
     1    1    2 1 
     2    1   24 1 
     3    1   25 1 
     4    1   26 1 
     5    2    3 1 
     6    2   14 am
     7    3    4 1 
     8    3   27 1 
     9    3   28 1 
    10    4   13 1 
    11    4    5 2 
    12    5    6 1 
    13    6   12 ar
    14    6    7 ar
    15    7    8 ar
    16    7   29 1 
    17    8    9 1 
    18    8   10 ar
    19   10   11 ar
    20   10   30 1 
    21   11   12 ar
    22   11   31 1 
    23   12   13 1 
    24   13   32 1 
    25   14   15 2 
    26   14   16 1 
    27   16   21 1 
    28   16   17 1 
    29   16   33 1 
    30   17   18 1 
    31   17   34 1 
    32   17   35 1 
    33   18   19 1 
    34   18   20 1 
    35   18   36 1 
    36   19   37 1 
    37   19   38 1 
    38   20   21 1 
    39   20   39 1 
    40   20   40 1 
    41   21   22 1 
    42   21   23 1 
##########                 Name:            E46176240
##########          Protonation:                   21
##########               SMILES:   c1cnccc1C[NH+]2C[C@H]3[C@@H]2CN(C3)C(=O)c4ccncc4
##########            Long Name:   1S,5R)-6-(4-pyridylmethyl)-3-aza-6-azoniabicyclo[3.2.0]heptan-3-yl]methanone
##########          FlexRecCode: 1
##########               Number:                  527
##########   Ligand Source File: /raidb/db2/rgc/leads-emolecules-300/leads-emolecules-2g-0000100.db2.gz
##########           GlobalRank: 1748
##########                 Rank:                    1
##########               Setnum:                   13
##########             Matchnum:                 2889
##########                Cloud:                    1
##########        Electrostatic:           -26.800343
##########        Van der Waals:           -24.528158
##########  Ligand Polar Desolv:            11.507573
########## Ligand Apolar Desolv:            -2.008055
##########      Internal Energy:             0.000000
##########      Receptor Energy: 0.0
########## Receptor Desolvation:             0.000000
########## Receptor Hydrophobic:             0.000000
##########         Total Energy: -41.83
##########        Ligand Charge:             1.000000
##########            Arbitrary:    +999.9990
##########     heavy atom count:   22
##########           pose count:    1
##########        Ligand Energy:             0.000000
# num electro vdwattr vdwrepu polsolv apolsol rdesolv rhydroe totalscore fullpol fullapo
#   1   -7.44   -4.23    6.02   -2.14    0.19    0.00    0.00      -7.60   -4.50    0.40
#   2    2.58   -1.91    0.60    3.42   -0.30    0.00    0.00       4.39    7.61   -0.66
#   3    1.44   -1.33    0.14   -5.64    0.90    0.00    0.00      -4.49  -13.07    2.08
#   4   -0.50   -0.73    0.13    0.28   -0.11    0.00    0.00      -0.93    0.77   -0.30
#   5    1.60   -0.55    0.03   -1.23   -0.11    0.00    0.00      -0.27   -3.64   -0.33
#   6   -0.29   -0.77    0.06    0.37   -0.22    0.00    0.00      -0.85    0.89   -0.54
#   7    7.00   -1.12    0.24   -5.25    0.21    0.00    0.00       1.08  -14.30    0.56
#   8   -9.17   -0.05    0.00    4.32    0.16    0.00    0.00      -4.75   13.97    0.51
#   9   -0.68   -0.65    0.09    0.61   -0.11    0.00    0.00      -0.75    2.07   -0.39
#  10    1.04   -0.95    0.14   -0.48   -0.10    0.00    0.00      -0.34   -1.77   -0.37
#  11    1.56   -1.07    0.17   -0.77   -0.13    0.00    0.00      -0.24   -2.63   -0.46
#  12   -0.33   -0.91    0.09    0.11   -0.29    0.00    0.00      -1.33    0.37   -0.98
#  13   -1.19   -1.15    0.29   -1.80    0.62    0.00    0.00      -3.23   -5.92    2.05
#  14    0.31   -1.03    0.14    0.03   -0.28    0.00    0.00      -0.83    0.09   -0.98
#  15    0.12   -1.01    0.16   -0.72   -0.11    0.00    0.00      -1.56   -2.95   -0.46
#  16   -0.27   -0.91    0.12    1.07   -0.16    0.00    0.00      -0.16    2.97   -0.44
#  17   -0.52   -1.43    0.28    0.72   -0.21    0.00    0.00      -1.16    1.59   -0.47
#  18   -0.36   -1.65    0.39   -0.64   -0.20    0.00    0.00      -2.45   -1.34   -0.41
#  19   -0.29   -1.97    0.61   -0.98   -0.20    0.00    0.00      -2.82   -2.01   -0.41
#  20    0.21   -2.93    1.27    0.46   -0.55    0.00    0.00      -1.54    0.83   -0.98
#  21   -2.44   -3.63    1.39   -2.40    1.31    0.00    0.00      -5.77   -3.76    2.05
#  22    0.38   -2.31    0.40    0.15   -0.62    0.00    0.00      -2.00    0.24   -0.98
#  23   -0.56   -1.65    0.30   -0.74   -0.27    0.00    0.00      -2.92   -1.26   -0.45
#  24   -0.56   -0.18    0.01    0.54   -0.04    0.00    0.00      -0.23    2.93   -0.23
#  25   -0.68   -0.58    0.89    1.04   -0.06    0.00    0.00       0.61    3.83   -0.22
#  26   -2.00   -0.14    0.01    1.03   -0.04    0.00    0.00      -1.14    6.94   -0.28
#  27   -4.35   -0.41    0.11    3.29   -0.09    0.00    0.00      -1.45    9.26   -0.26
#  28   -2.24   -0.22    0.01    1.60   -0.08    0.00    0.00      -0.92    5.58   -0.27
#  29   -1.67   -0.12    0.01    0.59   -0.03    0.00    0.00      -1.22    5.61   -0.28
#  30   -3.58   -0.52    0.63    2.04   -0.06    0.00    0.00      -1.48    8.42   -0.26
#  31   -2.43   -0.35    0.11    1.84   -0.08    0.00    0.00      -0.91    6.83   -0.28
#  32   -0.71   -0.16    0.01    0.35   -0.04    0.00    0.00      -0.56    2.22   -0.28
#  33    0.49   -0.18    0.02    0.26   -0.06    0.00    0.00       0.52    1.24   -0.28
#  34   -0.04   -0.21    0.04    0.78   -0.05    0.00    0.00       0.52    4.02   -0.28
#  35   -1.43   -0.44    0.16    2.92   -0.08    0.00    0.00       1.13   10.62   -0.28
#  36   -0.88   -0.60    0.21    0.85   -0.12    0.00    0.00      -0.54    2.05   -0.28
#  37   -0.31   -0.82    0.34    1.19   -0.14    0.00    0.00       0.26    2.34   -0.28
#  38    0.05   -0.38    0.11    1.93   -0.03    0.00    0.00       1.67    6.11   -0.11
#  39   -0.05   -0.81    0.55    1.64   -0.14    0.00    0.00       1.19    3.35   -0.28
#  40    0.21   -0.63    0.18    0.62   -0.17    0.00    0.00       0.22    1.04   -0.28
#  41    1.17   -0.30    0.03    0.24   -0.10    0.00    0.00       1.04    0.66   -0.27
@<TRIPOS>MOLECULE
E46176240
   41    44     0     0     0
SMALL
USER_CHARGES


@<TRIPOS>ATOM
      1 O1         20.2145   17.2074   63.8225 O.2       1            -0.4956
      2 C1         21.2418   16.6620   63.4708 C.2       1             0.5845
      3 N1         22.2538   17.3937   62.9640 N.am      1            -0.6284
      4 C2         23.2313   16.9425   61.9708 C.3       1             0.0773
      5 C3         23.8185   18.1990   61.3304 C.3       1            -0.1340
      6 C4         22.7611   19.1053   60.7025 C.3       1             0.0154
      7 N2         23.4601   20.1811   61.4220 N.4       1            -0.4093
      8 H1         22.8451   20.9180   61.7335 H         1             0.4328
      9 C5         24.6395   20.6871   60.7074 C.3       1             0.0423
     10 C6         24.9946   22.0554   61.2295 C.ar      1            -0.1132
     11 C7         24.4486   23.1959   60.6607 C.ar      1            -0.1497
     12 C8         24.7976   24.4339   61.1663 C.ar      1             0.1141
     13 N3         25.6389   24.5372   62.1764 N.ar      1            -0.4577
     14 C9         26.1774   23.4746   62.7419 C.ar      1             0.1158
     15 C10        25.8707   22.2035   62.2940 C.ar      1            -0.1516
     16 C11        23.7885   19.2100   62.4803 C.3       1             0.0278
     17 C12        22.5678   18.7847   63.3044 C.3       1             0.0934
     18 C13        21.3843   15.1935   63.6048 C.ar      1            -0.0966
     19 C14        22.6359   14.6101   63.8246 C.ar      1            -0.1837
     20 C15        22.7230   13.2366   63.9439 C.ar      1             0.1032
     21 N4         21.6476   12.4797   63.8533 N.ar      1            -0.4592
     22 C16        20.4494   12.9889   63.6466 C.ar      1             0.1096
     23 C17        20.2703   14.3529   63.5207 C.ar      1            -0.1102
     24 H2         24.0197   16.3681   62.4572 H         1             0.1151
     25 H3         22.7392   16.3326   61.2131 H         1             0.0978
     26 H4         24.7518   18.0683   60.7826 H         1             0.1636
     27 H5         22.8287   19.1805   59.6171 H         1             0.1626
     28 H6         21.7480   18.9182   61.0586 H         1             0.1440
     29 H7         25.4785   20.0091   60.8649 H         1             0.1409
     30 H8         24.4191   20.7509   59.6418 H         1             0.1444
     31 H9         23.7596   23.1177   59.8328 H         1             0.1447
     32 H10        24.3766   25.3271   60.7288 H         1             0.1699
     33 H11        26.8630   23.5986   63.5671 H         1             0.1698
     34 H12        26.3111   21.3369   62.7645 H         1             0.1442
     35 H13        24.7123   19.3775   63.0341 H         1             0.1959
     36 H14        21.7180   19.4236   63.0644 H         1             0.1072
     37 H15        22.7982   18.8610   64.3670 H         1             0.1217
     38 H16        23.5212   15.2241   63.8997 H         1             0.1610
     39 H17        23.6853   12.7767   64.1135 H         1             0.1662
     40 H18        19.5956   12.3309   63.5791 H         1             0.1715
     41 H19        19.2850   14.7634   63.3557 H         1             0.1524
@<TRIPOS>BOND
     1    1    2 2 
     2    2    3 am
     3    2   18 1 
     4    3   17 1 
     5    3    4 1 
     6    4    5 1 
     7    4   24 1 
     8    4   25 1 
     9    5   16 1 
    10    5    6 1 
    11    5   26 1 
    12    6    7 1 
    13    6   27 1 
    14    6   28 1 
    15    7    8 1 
    16    7    9 1 
    17    7   16 1 
    18    9   10 1 
    19    9   29 1 
    20    9   30 1 
    21   10   15 ar
    22   10   11 ar
    23   11   12 ar
    24   11   31 1 
    25   12   13 ar
    26   12   32 1 
    27   13   14 ar
    28   14   15 ar
    29   14   33 1 
    30   15   34 1 
    31   16   17 1 
    32   16   35 1 
    33   17   36 1 
    34   17   37 1 
    35   18   23 ar
    36   18   19 ar
    37   19   20 ar
    38   19   38 1 
    39   20   21 ar
    40   20   39 1 
    41   21   22 ar
    42   22   23 ar
    43   22   40 1 
    44   23   41 1 
##########                 Name:            E45757241
##########          Protonation:                   97
##########               SMILES:   COCC[NH+]1CC[C@@H](CC1)CNC(=O)c2nsnc2
##########            Long Name:   (2-methoxyethyl)piperidin-1-ium-4-yl]methyl]-1,2,5-thiadiazole-3-carboxamide
##########          FlexRecCode: 1
##########               Number:                  778
##########   Ligand Source File: /raidb/db2/rgc/leads-emolecules-300/leads-emolecules-2a-0000174.db2.gz
##########           GlobalRank: 1758
##########                 Rank:                    1
##########               Setnum:                   88
##########             Matchnum:                 2114
##########                Cloud:                    1
##########        Electrostatic:           -26.946043
##########        Van der Waals:           -23.214365
##########  Ligand Polar Desolv:             8.346558
########## Ligand Apolar Desolv:            -0.010143
##########      Internal Energy:             0.000000
##########      Receptor Energy: 0.0
########## Receptor Desolvation:             0.000000
########## Receptor Hydrophobic:             0.000000
##########         Total Energy: -41.82
##########        Ligand Charge:             1.000000
##########            Arbitrary:    +999.9990
##########     heavy atom count:   19
##########           pose count:    1
##########        Ligand Energy:             0.000000
# num electro vdwattr vdwrepu polsolv apolsol rdesolv rhydroe totalscore fullpol fullapo
#   1   -0.19   -0.81    0.13    0.15    0.01    0.00    0.00      -0.71    0.47    0.03
#   2    6.17   -2.82    1.97   -3.19    0.48    0.00    0.00       2.60   -8.65    1.29
#   3   -0.58   -1.24    0.41    0.09   -0.04    0.00    0.00      -1.37    0.25   -0.12
#   4    0.32   -1.24    0.33    0.03   -0.12    0.00    0.00      -0.68    0.08   -0.32
#   5   10.06   -2.16    2.67   -4.03    0.16    0.00    0.00       6.69  -11.12    0.43
#   6  -19.48   -0.32    0.38    5.44    0.19    0.00    0.00     -13.79   14.62    0.52
#   7    0.11   -1.33    0.42    0.18   -0.17    0.00    0.00      -0.79    0.45   -0.42
#   8    1.69   -0.69    0.07   -1.52   -0.08    0.00    0.00      -0.54   -3.89   -0.21
#   9    0.98   -0.60    0.04   -0.72   -0.05    0.00    0.00      -0.35   -2.21   -0.16
#  10   -0.52   -1.42    0.43    0.77   -0.16    0.00    0.00      -0.90    1.88   -0.38
#  11    0.22   -1.62    0.25   -4.34    0.95    0.00    0.00      -4.53  -10.15    2.23
#  12    0.11   -1.75    0.42    2.50   -0.29    0.00    0.00       0.99    5.65   -0.66
#  13    0.67   -1.69    0.41   -1.41    0.17    0.00    0.00      -1.85   -3.31    0.41
#  14   -0.02   -1.84    0.45   -0.06   -0.39    0.00    0.00      -1.85   -0.11   -0.74
#  15   -2.17   -1.59    0.27   -2.52    0.79    0.00    0.00      -5.23   -4.39    1.37
#  16    2.06   -3.69    0.87    3.42   -0.53    0.00    0.00       2.13    5.45   -0.85
#  17   -2.65   -4.47    2.50   -2.10    1.02    0.00    0.00      -5.71   -3.19    1.54
#  18    0.23   -3.13    1.14    0.23   -0.57    0.00    0.00      -2.09    0.38   -0.96
#  19    1.47   -0.65    0.07   -1.14   -0.06    0.00    0.00      -0.31   -4.09   -0.21
#  20    0.17   -0.59    0.10    0.03   -0.11    0.00    0.00      -0.41    0.10   -0.40
#  21   -0.52   -0.28    0.04    0.35   -0.08    0.00    0.00      -0.49    1.21   -0.28
#  22   -0.39   -0.17    0.01    0.08   -0.05    0.00    0.00      -0.52    0.46   -0.28
#  23   -0.29   -0.13    0.01    0.17   -0.04    0.00    0.00      -0.28    1.18   -0.28
#  24   -0.95   -0.18    0.02    0.49   -0.04    0.00    0.00      -0.67    2.62   -0.22
#  25   -2.43   -0.62    0.55    0.46   -0.09    0.00    0.00      -2.13    1.44   -0.28
#  26   -2.85   -0.33    0.09    1.34   -0.04    0.00    0.00      -1.78    4.84   -0.15
#  27   -4.24   -0.73    0.67    1.76   -0.11    0.00    0.00      -2.65    4.46   -0.28
#  28   -3.53   -0.58    0.20    2.27   -0.13    0.00    0.00      -1.77    5.00   -0.28
#  29   -2.53   -0.54    0.30    1.82   -0.10    0.00    0.00      -1.05    5.10   -0.28
#  30   -1.13   -0.19    0.01    0.62   -0.05    0.00    0.00      -0.74    2.80   -0.21
#  31   -0.99   -0.34    0.17    0.57   -0.07    0.00    0.00      -0.65    2.29   -0.28
#  32   -0.78   -0.14    0.01    0.37   -0.04    0.00    0.00      -0.58    2.87   -0.28
#  33   -0.39   -1.09    1.65    0.45   -0.10    0.00    0.00       0.52    1.24   -0.28
#  34   -0.31   -0.60    0.16    0.31   -0.12    0.00    0.00      -0.56    0.71   -0.28
#  35    0.84   -0.02    0.00    2.41    0.16    0.00    0.00       3.38    7.53    0.49
#  36   -0.06   -0.96    0.82    0.84   -0.14    0.00    0.00       0.49    1.65   -0.28
#  37   -0.96   -0.29    0.04    0.63   -0.05    0.00    0.00      -0.62    2.67   -0.22
#  38   -0.81   -0.31    0.13    0.40   -0.05    0.00    0.00      -0.63    2.16   -0.25
#  39   -1.69   -0.16    0.02    0.75   -0.04    0.00    0.00      -1.12    5.19   -0.28
#  40   -1.59   -0.13    0.01    0.48   -0.02    0.00    0.00      -1.26    4.23   -0.21
@<TRIPOS>MOLECULE
E45757241
   40    41     0     0     0
SMALL
USER_CHARGES


@<TRIPOS>ATOM
      1 C1         24.8918   23.4293   58.8984 C.3       1             0.0299
      2 O1         23.9041   22.4046   59.0268 O.3       1            -0.4023
      3 C2         23.6380   22.0198   60.3771 C.3       1             0.0275
      4 C3         22.9828   20.6372   60.3936 C.3       1            -0.0130
      5 N1         23.8874   19.6592   59.7750 N.4       1            -0.3796
      6 H1         24.0748   19.9318   58.8218 H         1             0.4345
      7 C4         23.2561   18.3341   59.7883 C.3       1            -0.0052
      8 C5         22.8980   17.9500   61.2256 C.3       1            -0.1421
      9 C6         24.1733   17.9181   62.0726 C.3       1            -0.1133
     10 C7         23.8135   17.6126   63.5280 C.3       1             0.1232
     11 N2         22.7608   16.5947   63.5675 N.am      1            -0.7181
     12 C8         23.0882   15.2880   63.6103 C.2       1             0.6075
     13 O2         24.2571   14.9541   63.6161 O.2       1            -0.5085
     14 C9         22.0263   14.2613   63.6504 C.2       1            -0.0078
     15 N3         20.7390   14.5644   63.6406 N.2       1            -0.4677
     16 S1         19.9905   13.1353   63.6947 S.3       1             0.5887
     17 N4         21.2473   12.1235   63.7310 N.2       1            -0.4761
     18 C10        22.3002   12.8998   63.6953 C.2       1             0.0750
     19 C11        24.8628   19.2833   61.9913 C.3       1            -0.1492
     20 C12        25.1475   19.6165   60.5267 C.3       1            -0.0111
     21 H2         25.0361   23.6647   57.8439 H         1             0.1010
     22 H3         24.5597   24.3224   59.4279 H         1             0.0558
     23 H4         25.8328   23.0825   59.3255 H         1             0.0515
     24 H5         24.5729   21.9854   60.9362 H         1             0.0739
     25 H6         22.9666   22.7456   60.8360 H         1             0.0969
     26 H7         22.7796   20.3437   61.4236 H         1             0.1463
     27 H8         22.0476   20.6717   59.8346 H         1             0.1403
     28 H9         22.3503   18.3577   59.1824 H         1             0.1349
     29 H10        23.9478   17.5984   59.3777 H         1             0.1326
     30 H11        22.2061   18.6850   61.6370 H         1             0.0937
     31 H12        22.4309   16.9652   61.2335 H         1             0.1186
     32 H13        24.8436   17.1469   61.6932 H         1             0.1013
     33 H14        24.6960   17.2432   64.0505 H         1             0.0793
     34 H15        23.4583   18.5219   64.0129 H         1             0.0852
     35 H16        21.8280   16.8612   63.5628 H         1             0.4099
     36 H17        23.3078   12.5111   63.7038 H         1             0.2168
     37 H18        24.2116   20.0459   62.4186 H         1             0.0930
     38 H19        25.8001   19.2512   62.5466 H         1             0.1128
     39 H20        25.7987   18.8536   60.1004 H         1             0.1336
     40 H21        25.6390   20.5875   60.4663 H         1             0.1303
@<TRIPOS>BOND
     1    1    2 1 
     2    1   21 1 
     3    1   22 1 
     4    1   23 1 
     5    2    3 1 
     6    3    4 1 
     7    3   24 1 
     8    3   25 1 
     9    4    5 1 
    10    4   26 1 
    11    4   27 1 
    12    5    6 1 
    13    5   20 1 
    14    5    7 1 
    15    7    8 1 
    16    7   28 1 
    17    7   29 1 
    18    8    9 1 
    19    8   30 1 
    20    8   31 1 
    21    9   10 1 
    22    9   19 1 
    23    9   32 1 
    24   10   11 1 
    25   10   33 1 
    26   10   34 1 
    27   11   12 am
    28   11   35 1 
    29   12   13 2 
    30   12   14 1 
    31   14   18 1 
    32   14   15 2 
    33   15   16 1 
    34   16   17 1 
    35   17   18 2 
    36   18   36 1 
    37   19   20 1 
    38   19   37 1 
    39   19   38 1 
    40   20   39 1 
    41   20   40 1 
##########                 Name:            E23814349
##########          Protonation:                   95
##########               SMILES:   c1cncc(c1)C[NH+]2CC[C@@H](CC2)Cc3ccc(cc3)F
##########            Long Name:   3-[[4-[(4-fluorophenyl)methyl]piperidin-1-ium-1-yl]methyl]pyridine
##########          FlexRecCode: 1
##########               Number:                  300
##########   Ligand Source File: /raidb/db2/rgc/leads-emolecules-300/leads-emolecules-2a-0000162.db2.gz
##########           GlobalRank: 1789
##########                 Rank:                    1
##########               Setnum:                   37
##########             Matchnum:                 1999
##########                Cloud:                    1
##########        Electrostatic:           -23.302315
##########        Van der Waals:           -24.554251
##########  Ligand Polar Desolv:             9.970693
########## Ligand Apolar Desolv:            -3.900723
##########      Internal Energy:             0.000000
##########      Receptor Energy: 0.0
########## Receptor Desolvation:             0.000000
########## Receptor Hydrophobic:             0.000000
##########         Total Energy: -41.79
##########        Ligand Charge:             1.000000
##########            Arbitrary:    +999.9990
##########     heavy atom count:   21
##########           pose count:    1
##########        Ligand Energy:             0.000000
# num electro vdwattr vdwrepu polsolv apolsol rdesolv rhydroe totalscore fullpol fullapo
#   1   -0.51   -1.90    0.48   -0.39   -0.32    0.00    0.00      -2.64   -0.59   -0.48
#   2    0.36   -2.09    0.52   -0.14   -0.21    0.00    0.00      -1.56   -0.23   -0.34
#   3   -0.80   -1.62    0.26   -1.23   -0.28    0.00    0.00      -3.66   -2.09   -0.47
#   4   -0.62   -1.74    0.42   -0.58   -0.17    0.00    0.00      -2.69   -1.24   -0.37
#   5   -0.19   -1.60    0.32   -0.52   -0.14    0.00    0.00      -2.12   -1.21   -0.33
#   6    0.11   -1.17    0.22   -0.89   -0.09    0.00    0.00      -1.82   -1.99   -0.19
#   7    0.79   -0.70    0.05   -0.93   -0.07    0.00    0.00      -0.87   -2.21   -0.17
#   8    1.44   -0.79    0.17   -1.42   -0.07    0.00    0.00      -0.68   -4.21   -0.22
#   9    0.24   -1.45    0.66    0.00   -0.15    0.00    0.00      -0.70   -0.01   -0.36
#  10    9.19   -1.75    1.32   -4.38    0.10    0.00    0.00       4.48  -12.32    0.27
#  11  -16.92   -0.18    0.09    5.73    0.20    0.00    0.00     -11.08   15.23    0.54
#  12   -0.71   -0.59    0.09    0.58   -0.09    0.00    0.00      -0.72    2.21   -0.36
#  13    2.34   -1.12    0.24   -1.14   -0.09    0.00    0.00       0.23   -4.00   -0.33
#  14   -1.08   -1.88    0.86    0.57   -0.30    0.00    0.00      -1.83    1.79   -0.95
#  15    0.28   -1.97    0.61   -2.71    0.73    0.00    0.00      -3.05   -7.56    2.05
#  16   -0.01   -1.77    0.47    0.17   -0.36    0.00    0.00      -1.49    0.47   -0.98
#  17    0.15   -1.72    0.82   -1.09   -0.15    0.00    0.00      -2.00   -3.43   -0.48
#  18    0.30   -0.96    0.10   -0.29   -0.11    0.00    0.00      -0.96   -0.98   -0.37
#  19    0.35   -0.92    0.13   -0.12   -0.13    0.00    0.00      -0.70   -0.31   -0.34
#  20    1.82   -0.99    0.17   -1.44   -0.10    0.00    0.00      -0.53   -3.55   -0.24
#  21    0.02   -1.61    0.37   -0.65   -0.20    0.00    0.00      -2.08   -1.47   -0.45
#  22   -0.09   -2.20    0.70   -0.87   -0.25    0.00    0.00      -2.71   -1.65   -0.47
#  23    0.92   -0.32    0.04    0.68   -0.11    0.00    0.00       1.20    1.76   -0.28
#  24    1.74   -0.49    0.22    2.06   -0.09    0.00    0.00       3.44    5.69   -0.25
#  25    0.11   -0.76    0.81    0.83   -0.13    0.00    0.00       0.86    1.84   -0.28
#  26   -0.17   -0.44    0.09    1.64   -0.06    0.00    0.00       1.06    4.47   -0.17
#  27   -0.84   -0.23    0.02    0.20   -0.08    0.00    0.00      -0.92    0.75   -0.28
#  28   -0.98   -0.14    0.01    0.26   -0.03    0.00    0.00      -0.88    1.86   -0.22
#  29   -0.65   -0.54    0.70    0.70   -0.07    0.00    0.00       0.12    2.61   -0.28
#  30   -2.30   -0.72    0.68    2.24   -0.08    0.00    0.00      -0.17    5.79   -0.20
#  31   -2.93   -0.60    0.34    2.83   -0.12    0.00    0.00      -0.48    6.46   -0.28
#  32   -1.71   -0.13    0.01    0.80   -0.03    0.00    0.00      -1.07    6.88   -0.28
#  33   -1.45   -0.12    0.01    0.81   -0.03    0.00    0.00      -0.79    6.69   -0.28
#  34   -1.62   -0.48    0.32    1.26   -0.07    0.00    0.00      -0.59    4.69   -0.28
#  35    0.05   -0.35    0.07    0.45   -0.10    0.00    0.00       0.11    1.23   -0.28
#  36    0.12   -0.60    0.99    0.66   -0.07    0.00    0.00       1.09    2.50   -0.28
#  37   -0.89   -0.14    0.01    1.02   -0.05    0.00    0.00      -0.04    6.03   -0.28
#  38   -2.94   -0.30    0.05    1.74   -0.06    0.00    0.00      -1.51    5.93   -0.22
#  39   -3.19   -0.36    0.07    1.33   -0.07    0.00    0.00      -2.21    3.81   -0.20
#  40   -1.27   -0.80    0.72    0.87   -0.11    0.00    0.00      -0.58    2.27   -0.28
#  41   -1.13   -0.27    0.03    0.55   -0.07    0.00    0.00      -0.89    2.19   -0.28
#  42   -0.29   -0.25    0.03    0.57   -0.07    0.00    0.00      -0.01    2.17   -0.28
#  43   -0.35   -0.75    0.63    0.25   -0.13    0.00    0.00      -0.35    0.54   -0.28
@<TRIPOS>MOLECULE
E23814349
   43    45     0     0     0
SMALL
USER_CHARGES


@<TRIPOS>ATOM
      1 F1         20.7752   12.1489   63.4386 F         1            -0.1327
      2 C1         21.1890   13.4349   63.4551 C.ar      1             0.1069
      3 C2         20.2689   14.4567   63.6176 C.ar      1            -0.1500
      4 C3         20.6933   15.7717   63.6343 C.ar      1            -0.0950
      5 C4         22.0359   16.0673   63.4889 C.ar      1            -0.1073
      6 C5         22.4975   17.5017   63.5078 C.3       1            -0.0804
      7 C6         22.4830   18.0609   62.0837 C.3       1            -0.0978
      8 C7         23.4282   17.2416   61.2009 C.3       1            -0.1462
      9 C8         23.4511   17.8464   59.7955 C.3       1            -0.0129
     10 N1         23.9223   19.2352   59.8610 N.4       1            -0.3804
     11 H1         23.9754   19.6148   58.9276 H         1             0.4226
     12 C9         25.2557   19.2685   60.4766 C.3       1             0.0491
     13 C10        26.2122   18.4506   59.6478 C.ar      1            -0.2183
     14 C11        26.9325   19.0393   58.6255 C.ar      1             0.1323
     15 N2         27.7716   18.3302   57.8963 N.ar      1            -0.4747
     16 C12        27.9575   17.0421   58.1091 C.ar      1             0.1381
     17 C13        27.2723   16.3853   59.1134 C.ar      1            -0.1658
     18 C14        26.3851   17.0992   59.9046 C.ar      1            -0.0498
     19 C15        22.9973   20.0450   60.6634 C.3       1            -0.0161
     20 C16        22.9587   19.5160   62.0986 C.3       1            -0.1389
     21 C17        22.9555   15.0478   63.3266 C.ar      1            -0.0823
     22 C18        22.5341   13.7317   63.3153 C.ar      1            -0.1460
     23 H2         19.2198   14.2261   63.7309 H         1             0.1390
     24 H3         19.9758   16.5690   63.7607 H         1             0.1255
     25 H4         21.8290   18.0903   64.1361 H         1             0.0886
     26 H5         23.5103   17.5523   63.9077 H         1             0.0698
     27 H6         21.4710   18.0112   61.6818 H         1             0.1057
     28 H7         24.4326   17.2637   61.6237 H         1             0.1169
     29 H8         23.0766   16.2111   61.1485 H         1             0.0913
     30 H9         24.1214   17.2657   59.1619 H         1             0.1298
     31 H10        22.4457   17.8242   59.3751 H         1             0.1337
     32 H11        25.6075   20.2990   60.5262 H         1             0.1371
     33 H12        25.2015   18.8543   61.4834 H         1             0.1415
     34 H13        26.8064   20.0922   58.4214 H         1             0.1626
     35 H14        28.6531   16.4939   57.4908 H         1             0.1710
     36 H15        27.4289   15.3301   59.2827 H         1             0.1511
     37 H16        25.8391   16.6133   60.6998 H         1             0.1440
     38 H17        23.3338   21.0819   60.6682 H         1             0.1302
     39 H18        21.9986   19.9906   60.2301 H         1             0.1280
     40 H19        22.2701   20.1185   62.6910 H         1             0.0905
     41 H20        23.9569   19.5688   62.5334 H         1             0.1137
     42 H21        24.0041   15.2799   63.2127 H         1             0.1347
     43 H22        23.2532   12.9353   63.1930 H         1             0.1407
@<TRIPOS>BOND
     1    1    2 1 
     2    2   22 ar
     3    2    3 ar
     4    3    4 ar
     5    3   23 1 
     6    4    5 ar
     7    4   24 1 
     8    5    6 1 
     9    5   21 ar
    10    6    7 1 
    11    6   25 1 
    12    6   26 1 
    13    7   20 1 
    14    7    8 1 
    15    7   27 1 
    16    8    9 1 
    17    8   28 1 
    18    8   29 1 
    19    9   10 1 
    20    9   30 1 
    21    9   31 1 
    22   10   11 1 
    23   10   12 1 
    24   10   19 1 
    25   12   13 1 
    26   12   32 1 
    27   12   33 1 
    28   13   18 ar
    29   13   14 ar
    30   14   15 ar
    31   14   34 1 
    32   15   16 ar
    33   16   17 ar
    34   16   35 1 
    35   17   18 ar
    36   17   36 1 
    37   18   37 1 
    38   19   20 1 
    39   19   38 1 
    40   19   39 1 
    41   20   40 1 
    42   20   41 1 
    43   21   22 ar
    44   21   42 1 
    45   22   43 1 
##########                 Name:            E46042194
##########          Protonation:                   80
##########               SMILES:   Cc1cc(nc([nH+]1)N)N(C)Cc2ccc3c(c2)nsn3
##########            Long Name:   (2,1,3-benzothiadiazol-5-ylmethyl)-N4,6-dimethyl-pyrimidin-1-ium-2,4-diamine
##########          FlexRecCode: 1
##########               Number:                  631
##########   Ligand Source File: /raidb/db2/rgc/leads-emolecules-300/leads-emolecules-2b-0000144.db2.gz
##########           GlobalRank: 1789
##########                 Rank:                    1
##########               Setnum:                  116
##########             Matchnum:                 5360
##########                Cloud:                    1
##########        Electrostatic:           -20.180912
##########        Van der Waals:           -25.710222
##########  Ligand Polar Desolv:             6.190411
########## Ligand Apolar Desolv:            -2.091293
##########      Internal Energy:             0.000000
##########      Receptor Energy: 0.0
########## Receptor Desolvation:             0.000000
########## Receptor Hydrophobic:             0.000000
##########         Total Energy: -41.79
##########        Ligand Charge:             1.000000
##########            Arbitrary:    +999.9990
##########     heavy atom count:   20
##########           pose count:    1
##########        Ligand Energy:             0.000000
# num electro vdwattr vdwrepu polsolv apolsol rdesolv rhydroe totalscore fullpol fullapo
#   1   -0.24   -1.04    0.18    0.49   -0.22    0.00    0.00      -0.82    1.23   -0.54
#   2    2.55   -0.91    0.06   -4.00    0.59    0.00    0.00      -1.72  -11.35    1.67
#   3   -0.44   -1.02    0.23    1.11   -0.15    0.00    0.00      -0.28    3.01   -0.42
#   4    0.10   -1.58    0.31   -0.29   -0.16    0.00    0.00      -1.62   -0.67   -0.38
#   5    0.01   -2.17    0.63   -0.49   -0.23    0.00    0.00      -2.24   -0.97   -0.45
#   6    0.17   -2.14    0.50    0.16   -0.45    0.00    0.00      -1.75    0.27   -0.76
#   7   -2.48   -3.88    1.58   -1.48    0.90    0.00    0.00      -5.37   -2.26    1.37
#   8    0.95   -5.77    3.39    1.54   -0.56    0.00    0.00      -0.44    2.35   -0.85
#   9   -2.89   -1.90    0.34   -1.18    0.81    0.00    0.00      -4.81   -1.98    1.37
#  10    0.30   -1.67    0.42    0.13   -0.44    0.00    0.00      -1.25    0.23   -0.76
#  11   -0.27   -1.61    0.37   -0.59   -0.21    0.00    0.00      -2.31   -1.33   -0.47
#  12    0.00   -1.45    0.25   -0.15   -0.19    0.00    0.00      -1.54   -0.35   -0.45
#  13   -3.76   -0.86    0.07    3.25   -0.63    0.00    0.00      -1.92   10.39   -2.01
#  14    6.21   -1.14    0.20   -4.44    0.53    0.00    0.00       1.36  -13.43    1.61
#  15  -12.14   -1.43    0.31    5.61   -1.76    0.00    0.00      -9.40   15.79   -4.94
#  16   18.22   -1.73    0.31   -8.86    0.42    0.00    0.00       8.35  -20.07    0.95
#  17   12.12   -2.38    2.14   -4.59    0.31    0.00    0.00       7.60  -14.46    0.97
#  18  -14.47   -0.13    0.05    3.89    0.16    0.00    0.00     -10.49   13.71    0.58
#  19   -2.63   -1.05    0.20    1.92   -0.21    0.00    0.00      -1.77    6.83   -0.75
#  20    0.75   -0.61    0.08   -0.95   -0.05    0.00    0.00      -0.78   -3.64   -0.21
#  21    1.76   -0.68    0.04   -1.84   -0.11    0.00    0.00      -0.84   -6.98   -0.42
#  22   -0.10   -0.49    0.28    0.78   -0.11    0.00    0.00       0.36    2.06   -0.28
#  23   -0.24   -0.22    0.02    0.57   -0.05    0.00    0.00       0.07    2.37   -0.21
#  24   -0.71   -0.66    0.66    0.65   -0.12    0.00    0.00      -0.17    1.52   -0.27
#  25   -0.19   -0.40    0.12    0.78   -0.08    0.00    0.00       0.24    2.65   -0.26
#  26   -0.47   -0.56    0.34    0.73   -0.08    0.00    0.00      -0.03    2.60   -0.28
#  27   -0.49   -0.65    0.45    1.04   -0.12    0.00    0.00       0.22    2.38   -0.28
#  28    1.37   -0.38    0.12    0.64   -0.10    0.00    0.00       1.66    1.85   -0.28
#  29   -0.35   -0.23    0.01    1.11   -0.07    0.00    0.00       0.48    3.93   -0.24
#  30   -8.02   -0.02    0.00    3.69    0.20    0.00    0.00      -4.16   11.30    0.60
#  31  -12.94   -0.04    0.00    4.85    0.23    0.00    0.00      -7.91   12.59    0.59
#  32   -0.19   -0.09    0.00    0.30   -0.03    0.00    0.00      -0.01    3.09   -0.28
#  33   -0.62   -0.43    0.13    0.93   -0.09    0.00    0.00      -0.07    3.03   -0.28
#  34   -0.49   -0.11    0.01    0.41   -0.04    0.00    0.00      -0.22    3.22   -0.28
#  35   -0.58   -0.09    0.00    0.47   -0.02    0.00    0.00      -0.21    4.94   -0.22
@<TRIPOS>MOLECULE
E46042194
   35    37     0     0     0
SMALL
USER_CHARGES


@<TRIPOS>ATOM
      1 C1         25.8145   14.3107   61.2353 C.3       1             0.0637
      2 N1         25.2760   15.5347   61.8340 N.pl3     1            -0.5416
      3 C2         24.8519   15.5388   63.2363 C.3       1             0.1485
      4 C3         23.3965   15.1574   63.3221 C.ar      1            -0.0958
      5 C4         23.0616   13.8532   63.4605 C.ar      1            -0.0403
      6 C5         21.6948   13.4727   63.5433 C.ar      1             0.0589
      7 N2         21.1807   12.2497   63.6795 N.2       1            -0.5001
      8 S1         19.5849   12.4504   63.7134 S.3       1             0.6698
      9 N3         19.4348   14.0451   63.5633 N.2       1            -0.5038
     10 C6         20.6791   14.5172   63.4757 C.ar      1             0.0682
     11 C7         21.1052   15.8652   63.3304 C.ar      1            -0.0634
     12 C8         22.4253   16.1569   63.2627 C.ar      1            -0.0815
     13 C9         25.1681   16.6880   61.0743 C.ar      1             0.5160
     14 N4         23.9836   17.2592   60.8801 N.ar      1            -0.5768
     15 C10        23.8775   18.3622   60.1546 C.ar      1             0.6655
     16 N5         22.6298   18.9321   59.9721 N.pl3     1            -0.7952
     17 N6         24.9363   18.9335   59.5995 N.ar      1            -0.5764
     18 H1         24.8234   19.7410   59.0740 H         1             0.4398
     19 C11        26.1470   18.4178   59.7525 C.ar      1             0.2434
     20 C12        27.3424   19.0787   59.1157 C.3       1            -0.1402
     21 C13        26.3027   17.2706   60.5059 C.ar      1            -0.2748
     22 H2         26.0735   14.4994   60.1935 H         1             0.0865
     23 H3         26.7058   14.0010   61.7809 H         1             0.0881
     24 H4         25.0648   13.5211   61.2861 H         1             0.0981
     25 H5         25.4494   14.8213   63.7987 H         1             0.1132
     26 H6         24.9916   16.5354   63.6552 H         1             0.1111
     27 H7         23.8344   13.1003   63.5079 H         1             0.1433
     28 H8         20.3744   16.6588   63.2777 H         1             0.1435
     29 H9         22.7335   17.1865   63.1559 H         1             0.1422
     30 H10        21.8467   18.5239   60.3733 H         1             0.4435
     31 H11        22.5384   19.7400   59.4428 H         1             0.4296
     32 H12        28.2415   18.5104   59.3540 H         1             0.1170
     33 H13        27.2077   19.1092   58.0344 H         1             0.1178
     34 H14        27.4426   20.0945   59.4981 H         1             0.0991
     35 H15        27.2792   16.8322   60.6491 H         1             0.1830
@<TRIPOS>BOND
     1    1    2 1 
     2    1   22 1 
     3    1   23 1 
     4    1   24 1 
     5    2    3 1 
     6    2   13 1 
     7    3    4 1 
     8    3   25 1 
     9    3   26 1 
    10    4   12 ar
    11    4    5 ar
    12    5    6 ar
    13    5   27 1 
    14    6   10 ar
    15    6    7 2 
    16    7    8 1 
    17    8    9 1 
    18    9   10 2 
    19   10   11 ar
    20   11   12 ar
    21   11   28 1 
    22   12   29 1 
    23   13   21 ar
    24   13   14 ar
    25   14   15 ar
    26   15   16 1 
    27   15   17 ar
    28   16   30 1 
    29   16   31 1 
    30   17   18 1 
    31   17   19 ar
    32   19   20 1 
    33   19   21 ar
    34   20   32 1 
    35   20   33 1 
    36   20   34 1 
    37   21   35 1 
##########                 Name:            E15190421
##########          Protonation:                  100
##########               SMILES:   Cc1c(sc2n1c(=O)c(cn2)C(=O)Nc3ccccc3)C
##########            Long Name:   2,3-dimethyl-5-oxo-N-phenyl-thiazolo[3,2-a]pyrimidine-6-carboxamide
##########          FlexRecCode: 1
##########               Number:                  536
##########   Ligand Source File: /raidb/db2/rgc/leads-emolecules-300/leads-emolecules-3-ah-0000004.db2.gz
##########           GlobalRank: 1789
##########                 Rank:                    1
##########               Setnum:                   12
##########             Matchnum:                 3902
##########                Cloud:                    1
##########        Electrostatic:           -16.884310
##########        Van der Waals:           -27.935749
##########  Ligand Polar Desolv:             6.445649
########## Ligand Apolar Desolv:            -3.418211
##########      Internal Energy:             0.000000
##########      Receptor Energy: 0.0
########## Receptor Desolvation:             0.000000
########## Receptor Hydrophobic:             0.000000
##########         Total Energy: -41.79
##########        Ligand Charge:             0.000000
##########            Arbitrary:    +999.9990
##########     heavy atom count:   21
##########           pose count:    1
##########        Ligand Energy:             0.000000
# num electro vdwattr vdwrepu polsolv apolsol rdesolv rhydroe totalscore fullpol fullapo
#   1    0.28   -0.91    0.20   -0.24   -0.06    0.00    0.00      -0.73   -0.76   -0.19
#   2    0.34   -1.49    0.28   -0.26   -0.13    0.00    0.00      -1.26   -0.65   -0.32
#   3   -0.01   -1.51    0.25    0.00   -0.30    0.00    0.00      -1.56    0.00   -0.71
#   4    0.23   -1.04    0.14   -0.07   -0.07    0.00    0.00      -0.81   -0.16   -0.17
#   5   -1.58   -1.64    0.33    0.52    0.56    0.00    0.00      -1.81    1.11    1.21
#   6    0.81   -1.88    0.40   -0.19   -1.16    0.00    0.00      -2.02   -0.34   -2.04
#   7   -0.37   -3.79    1.65    0.70   -0.40    0.00    0.00      -2.20    1.42   -0.81
#   8   -1.96   -2.23    0.38    1.08    1.30    0.00    0.00      -1.43    1.72    2.08
#   9    1.25   -2.24    0.59   -0.82   -0.57    0.00    0.00      -1.79   -1.34   -0.94
#  10   -3.10   -1.69    0.23    1.53   -0.23    0.00    0.00      -3.26    2.71   -0.41
#  11    7.82   -2.02    0.38   -3.25   -0.38    0.00    0.00       2.55   -5.40   -0.63
#  12  -10.82   -2.67    1.10    3.84    0.20    0.00    0.00      -8.35    6.57    0.34
#  13   -6.28   -2.95    1.69    3.58    1.05    0.00    0.00      -2.91    5.57    1.63
#  14    1.70   -2.90    1.79   -0.57   -0.44    0.00    0.00      -0.42   -0.88   -0.68
#  15   -0.93   -3.01    0.94    0.82   -0.25    0.00    0.00      -2.44    1.29   -0.40
#  16   -0.95   -2.91    0.96    0.35   -0.31    0.00    0.00      -2.86    0.53   -0.47
#  17   -1.53   -2.33    0.55    0.22   -0.31    0.00    0.00      -3.40    0.34   -0.47
#  18   -1.10   -3.06    1.34    0.16   -0.30    0.00    0.00      -2.97    0.25   -0.47
#  19   -1.96   -2.94    1.19    0.48   -0.27    0.00    0.00      -3.50    0.81   -0.46
#  20    4.68   -1.93    0.59   -1.52   -0.31    0.00    0.00       1.52   -3.14   -0.64
#  21   -7.96   -3.64    3.95    1.77    0.14    0.00    0.00      -5.74    3.69    0.29
#  22   -0.59   -0.32    0.13    0.28   -0.06    0.00    0.00      -0.56    1.37   -0.28
#  23   -0.31   -0.48    0.21    0.37   -0.08    0.00    0.00      -0.28    1.36   -0.28
#  24   -0.42   -0.14    0.01    0.20   -0.04    0.00    0.00      -0.40    1.37   -0.28
#  25    0.07   -0.44    0.15    0.37   -0.09    0.00    0.00       0.07    1.00   -0.24
#  26   -0.21   -0.52    0.11   -0.02   -0.11    0.00    0.00      -0.76   -0.04   -0.27
#  27   -0.65   -0.17    0.01   -0.01   -0.06    0.00    0.00      -0.88   -0.03   -0.27
#  28    0.46   -0.83    0.86   -0.34   -0.14    0.00    0.00       0.01   -0.63   -0.26
#  29    1.76   -0.06    0.00   -1.58    0.17    0.00    0.00       0.30   -3.26    0.36
#  30    0.13   -0.75    0.20   -0.65   -0.13    0.00    0.00      -1.20   -1.08   -0.22
#  31    1.07   -1.52    5.42   -0.21   -0.17    0.00    0.00       4.59   -0.36   -0.28
#  32    1.21   -0.61    0.29    0.07   -0.15    0.00    0.00       0.81    0.13   -0.28
#  33    0.61   -1.30    2.08    0.08   -0.16    0.00    0.00       1.31    0.15   -0.28
#  34    1.42   -0.71    0.29   -0.26   -0.16    0.00    0.00       0.58   -0.47   -0.28
@<TRIPOS>MOLECULE
E15190421
   34    36     0     0     0
SMALL
USER_CHARGES


@<TRIPOS>ATOM
      1 C1         25.2324   16.0573   62.9448 C.3       1            -0.0643
      2 C2         23.8741   15.4724   63.2339 C.2       1            -0.1747
      3 C3         22.7100   16.0983   63.4072 C.2       1             0.0678
      4 C4         22.6200   17.6003   63.3242 C.3       1            -0.0915
      5 N1         21.5920   15.3370   63.6636 N.am      1            -0.4693
      6 C5         21.7689   13.9857   63.7203 C.2       1             0.2816
      7 S1         23.4053   13.7635   63.4251 S.3       1             0.2686
      8 N2         20.7943   13.1286   63.9561 N.2       1            -0.5082
      9 C6         19.5515   13.5308   64.1583 C.2       1             0.2799
     10 C7         19.2734   14.9020   64.1190 C.2       1            -0.3536
     11 C8         17.9073   15.3902   64.3384 C.2       1             0.5906
     12 O1         17.5346   16.4173   63.8022 O.2       1            -0.5279
     13 N3         17.0650   14.7011   65.1335 N.am      1            -0.6644
     14 C9         15.7628   15.1663   65.3426 C.ar      1             0.1494
     15 C10        15.1147   14.9046   66.5428 C.ar      1            -0.1243
     16 C11        13.8287   15.3653   66.7462 C.ar      1            -0.1004
     17 C12        13.1862   16.0862   65.7563 C.ar      1            -0.1385
     18 C13        13.8285   16.3480   64.5600 C.ar      1            -0.1002
     19 C14        15.1169   15.8958   64.3529 C.ar      1            -0.1474
     20 C15        20.3250   15.8089   63.8657 C.2       1             0.5479
     21 O2         20.1045   17.0069   63.8276 O.2       1            -0.5152
     22 H1         25.1569   17.1436   62.8930 H         1             0.0875
     23 H2         25.9247   15.7788   63.7394 H         1             0.0927
     24 H3         25.5986   15.6728   61.9929 H         1             0.0927
     25 H4         21.5894   17.9125   63.4936 H         1             0.0896
     26 H5         23.2639   18.0454   64.0826 H         1             0.0894
     27 H6         22.9414   17.9294   62.3359 H         1             0.0894
     28 H7         18.7657   12.8151   64.3498 H         1             0.1995
     29 H8         17.3621   13.8825   65.5609 H         1             0.4218
     30 H9         15.6157   14.3412   67.3161 H         1             0.1338
     31 H10        13.3242   15.1621   67.6793 H         1             0.1254
     32 H11        12.1804   16.4450   65.9178 H         1             0.1229
     33 H12        13.3238   16.9109   63.7888 H         1             0.1256
     34 H13        15.6199   16.1051   63.4203 H         1             0.1236
@<TRIPOS>BOND
     1    1    2 1 
     2    1   22 1 
     3    1   23 1 
     4    1   24 1 
     5    2    7 1 
     6    2    3 2 
     7    3    4 1 
     8    3    5 1 
     9    4   25 1 
    10    4   26 1 
    11    4   27 1 
    12    5   20 am
    13    5    6 1 
    14    6    7 1 
    15    6    8 2 
    16    8    9 1 
    17    9   10 2 
    18    9   28 1 
    19   10   11 1 
    20   10   20 1 
    21   11   12 2 
    22   11   13 am
    23   13   14 1 
    24   13   29 1 
    25   14   19 ar
    26   14   15 ar
    27   15   16 ar
    28   15   30 1 
    29   16   17 ar
    30   16   31 1 
    31   17   18 ar
    32   17   32 1 
    33   18   19 ar
    34   18   33 1 
    35   19   34 1 
    36   20   21 2 
##########                 Name:            E44440654
##########          Protonation:                   98
##########               SMILES:   CCCc1c(snn1)C(=O)N2CCCC[C@@H](C2)[NH+](C)C
##########            Long Name:   dimethyl-[(3S)-1-(4-propylthiadiazole-5-carbonyl)azepan-3-yl]ammonium
##########          FlexRecCode: 1
##########               Number:                  102
##########   Ligand Source File: /raidb/db2/rgc/leads-emolecules-300/leads-emolecules-2h-0000311.db2.gz
##########           GlobalRank: 1802
##########                 Rank:                    1
##########               Setnum:                  268
##########             Matchnum:                  723
##########                Cloud:                    1
##########        Electrostatic:           -22.532627
##########        Van der Waals:           -25.755926
##########  Ligand Polar Desolv:             8.803763
########## Ligand Apolar Desolv:            -2.296732
##########      Internal Energy:             0.000000
##########      Receptor Energy: 0.0
########## Receptor Desolvation:             0.000000
########## Receptor Hydrophobic:             0.000000
##########         Total Energy: -41.78
##########        Ligand Charge:             1.000000
##########            Arbitrary:    +999.9990
##########     heavy atom count:   20
##########           pose count:    1
##########        Ligand Energy:             0.000000
# num electro vdwattr vdwrepu polsolv apolsol rdesolv rhydroe totalscore fullpol fullapo
#   1   -2.81   -1.68    0.54   -0.74   -0.12    0.00    0.00      -4.81   -1.22   -0.19
#   2   -1.20   -1.24    0.20   -0.43   -0.15    0.00    0.00      -2.82   -0.73   -0.25
#   3   -0.45   -1.09    0.16   -0.12   -0.11    0.00    0.00      -1.62   -0.24   -0.21
#   4    0.53   -1.65    0.33    0.14   -0.39    0.00    0.00      -1.04    0.24   -0.68
#   5   -0.54   -1.72    0.42   -1.18   -0.14    0.00    0.00      -3.16   -2.45   -0.29
#   6    0.20   -4.75    2.44    2.67   -0.37    0.00    0.00       0.18    4.91   -0.69
#   7   -1.00   -4.01    1.94   -0.90    0.32    0.00    0.00      -3.65   -1.40    0.50
#   8   -0.96   -2.08    0.29   -0.67    0.69    0.00    0.00      -2.74   -1.08    1.10
#   9    0.07   -1.64    0.31    3.87   -0.27    0.00    0.00       2.35    9.11   -0.64
#  10   -1.12   -3.20    1.83   -3.57    0.17    0.00    0.00      -5.89   -7.35    0.36
#  11    2.65   -1.09    0.12   -4.13    0.54    0.00    0.00      -1.91  -11.42    1.49
#  12   -0.45   -0.86    0.23    0.61   -0.13    0.00    0.00      -0.60    1.65   -0.36
#  13    0.64   -0.54    0.03   -0.89   -0.08    0.00    0.00      -0.85   -2.72   -0.24
#  14    0.76   -0.87    0.15   -0.94   -0.08    0.00    0.00      -0.99   -2.70   -0.23
#  15    2.08   -0.79    0.14   -1.33   -0.06    0.00    0.00       0.04   -4.22   -0.19
#  16   -0.12   -0.73    0.09    0.41   -0.05    0.00    0.00      -0.40    1.21   -0.15
#  17   -0.92   -0.60    0.03    0.69   -0.13    0.00    0.00      -0.93    1.91   -0.35
#  18    8.56   -1.23    0.27   -4.33    0.13    0.00    0.00       3.40  -11.09    0.34
#  19  -13.85   -0.06    0.01    6.07    0.20    0.00    0.00      -7.63   16.77    0.56
#  20    1.12   -1.10    0.17   -0.84   -0.22    0.00    0.00      -0.87   -1.73   -0.46
#  21    0.92   -0.81    0.12   -0.57   -0.16    0.00    0.00      -0.49   -1.64   -0.46
#  22    0.90   -0.43    0.08    0.34   -0.12    0.00    0.00       0.77    0.82   -0.28
#  23    1.58   -1.14    1.63    0.17   -0.14    0.00    0.00       2.09    0.33   -0.28
#  24    1.08   -0.48    0.09    0.21   -0.14    0.00    0.00       0.76    0.42   -0.28
#  25    0.59   -0.56    0.31    0.27   -0.13    0.00    0.00       0.48    0.59   -0.28
#  26    0.49   -0.51    0.28    0.02   -0.11    0.00    0.00       0.17    0.04   -0.28
#  27    0.79   -0.37    0.07    0.16   -0.11    0.00    0.00       0.53    0.39   -0.28
#  28    1.24   -0.47    0.19    0.43   -0.08    0.00    0.00       1.31    1.25   -0.23
#  29   -0.40   -0.25    0.03    0.63   -0.08    0.00    0.00      -0.06    2.35   -0.28
#  30   -0.49   -0.75    1.35    0.21    0.02    0.00    0.00       0.35    0.57    0.06
#  31   -0.41   -0.14    0.01    0.42   -0.03    0.00    0.00      -0.15    3.23   -0.25
#  32   -0.29   -0.17    0.01    0.32   -0.06    0.00    0.00      -0.20    1.38   -0.28
#  33   -0.33   -0.23    0.03    0.31   -0.06    0.00    0.00      -0.28    1.33   -0.28
#  34   -0.54   -0.65    0.45    0.23   -0.11    0.00    0.00      -0.60    0.57   -0.26
#  35   -0.90   -0.11    0.00    0.46   -0.03    0.00    0.00      -0.58    4.16   -0.25
#  36   -1.84   -0.67    0.61    1.07   -0.06    0.00    0.00      -0.90    3.31   -0.20
#  37   -2.02   -0.43    0.22    0.89   -0.09    0.00    0.00      -1.42    2.77   -0.28
#  38   -0.90   -0.20    0.01    0.81   -0.05    0.00    0.00      -0.32    3.10   -0.18
#  39   -0.90   -0.23    0.03    0.97   -0.05    0.00    0.00      -0.17    5.07   -0.28
#  40   -3.32   -0.55    0.29    1.18   -0.11    0.00    0.00      -2.52    3.00   -0.28
#  41   -2.89   -0.45    0.12    2.00   -0.12    0.00    0.00      -1.33    4.83   -0.28
#  42   -1.80   -0.26    0.03    1.22   -0.06    0.00    0.00      -0.88    4.33   -0.21
#  43   -2.75   -0.34    0.10    1.13   -0.06    0.00    0.00      -1.92    3.86   -0.22
#  44   -1.79   -0.35    0.10    1.18   -0.07    0.00    0.00      -0.92    4.78   -0.28
#  45   -1.73   -0.14    0.01    0.35   -0.04    0.00    0.00      -1.55    2.51   -0.28
@<TRIPOS>MOLECULE
E44440654
   45    46     0     0     0
SMALL
USER_CHARGES


@<TRIPOS>ATOM
      1 C1         17.5354   16.1527   64.7231 C.3       1            -0.1503
      2 C2         18.6637   15.1194   64.7162 C.3       1            -0.1124
      3 C3         19.7005   15.5035   63.6588 C.3       1            -0.0481
      4 C4         20.8119   14.4857   63.6521 C.2       1             0.1192
      5 C5         22.1558   14.8389   63.6136 C.2       1            -0.2758
      6 S1         22.9049   13.2186   63.6268 S.3       1             0.3344
      7 N1         21.5467   12.3342   63.6758 N.2       1            -0.1806
      8 N2         20.5919   13.1946   63.6875 N.2       1            -0.2623
      9 C6         22.7826   16.1699   63.5734 C.2       1             0.6161
     10 O1         22.5867   16.9618   64.4754 O.2       1            -0.5011
     11 N3         23.5736   16.5110   62.5369 N.am      1            -0.5973
     12 C7         24.3484   15.4778   61.8109 C.3       1             0.0901
     13 C8         25.7488   15.8147   61.3655 C.3       1            -0.1349
     14 C9         25.6674   16.5432   60.0086 C.3       1            -0.1109
     15 C10        25.1596   17.9345   60.0212 C.3       1            -0.1559
     16 C11        23.7409   18.0640   60.6077 C.3       1             0.0084
     17 C12        23.6765   17.9259   62.1026 C.3       1             0.1071
     18 N4         23.2000   19.3785   60.2368 N.4       1            -0.3814
     19 H1         23.4605   19.5933   59.2861 H         1             0.4246
     20 C13        21.7356   19.3550   60.3500 C.3       1            -0.0522
     21 C14        23.7442   20.4036   61.1373 C.3       1            -0.0517
     22 H2         16.7966   15.8791   65.4765 H         1             0.0564
     23 H3         17.9444   17.1359   64.9558 H         1             0.0592
     24 H4         17.0610   16.1793   63.7421 H         1             0.0602
     25 H5         19.1379   15.0928   65.6973 H         1             0.0643
     26 H6         18.2545   14.1361   64.4837 H         1             0.0667
     27 H7         19.2263   15.5301   62.6779 H         1             0.0937
     28 H8         20.1097   16.4867   63.8914 H         1             0.1000
     29 H9         24.4080   14.5980   62.4518 H         1             0.0925
     30 H10        23.7779   15.1981   60.9253 H         1             0.0856
     31 H11        26.2214   16.4642   62.1022 H         1             0.0806
     32 H12        26.3286   14.8982   61.2551 H         1             0.0986
     33 H13        26.6667   16.5545   59.5732 H         1             0.0917
     34 H14        25.0250   15.9573   59.3511 H         1             0.0738
     35 H15        25.8390   18.5488   60.6121 H         1             0.0883
     36 H16        25.1506   18.3122   58.9988 H         1             0.0896
     37 H17        23.1105   17.2935   60.1637 H         1             0.1401
     38 H18        22.8086   18.4729   62.4711 H         1             0.1099
     39 H19        24.5772   18.3635   62.5333 H         1             0.1078
     40 H20        21.3342   20.3303   60.0748 H         1             0.1231
     41 H21        21.3317   18.5941   59.6820 H         1             0.1281
     42 H22        21.4543   19.1229   61.3771 H         1             0.1258
     43 H23        23.3429   21.3791   60.8622 H         1             0.1245
     44 H24        23.4627   20.1715   62.1645 H         1             0.1275
     45 H25        24.8308   20.4210   61.0536 H         1             0.1270
@<TRIPOS>BOND
     1    1    2 1 
     2    1   22 1 
     3    1   23 1 
     4    1   24 1 
     5    2    3 1 
     6    2   25 1 
     7    2   26 1 
     8    3    4 1 
     9    3   27 1 
    10    3   28 1 
    11    4    8 1 
    12    4    5 2 
    13    5    6 1 
    14    5    9 1 
    15    6    7 1 
    16    7    8 2 
    17    9   10 2 
    18    9   11 am
    19   11   17 1 
    20   11   12 1 
    21   12   13 1 
    22   12   29 1 
    23   12   30 1 
    24   13   14 1 
    25   13   31 1 
    26   13   32 1 
    27   14   15 1 
    28   14   33 1 
    29   14   34 1 
    30   15   16 1 
    31   15   35 1 
    32   15   36 1 
    33   16   17 1 
    34   16   18 1 
    35   16   37 1 
    36   17   38 1 
    37   17   39 1 
    38   18   19 1 
    39   18   20 1 
    40   18   21 1 
    41   20   40 1 
    42   20   41 1 
    43   20   42 1 
    44   21   43 1 
    45   21   44 1 
    46   21   45 1 
##########                 Name:             E1992552
##########          Protonation:                   95
##########               SMILES:   CC[C@H](C)[NH+]1CCN(CC1)Cc2ccc3c(c2)OCO3
##########            Long Name:   1-(1,3-benzodioxol-5-ylmethyl)-4-[(1S)-1-methylpropyl]piperazin-4-ium
##########          FlexRecCode: 1
##########               Number:                  493
##########   Ligand Source File: /raidb/db2/rgc/leads-emolecules-300/leads-emolecules-3-am-0000007.db2.gz
##########           GlobalRank: 1817
##########                 Rank:                    1
##########               Setnum:                   10
##########             Matchnum:                  682
##########                Cloud:                    1
##########        Electrostatic:           -24.634048
##########        Van der Waals:           -24.890190
##########  Ligand Polar Desolv:             9.234520
########## Ligand Apolar Desolv:            -1.470256
##########      Internal Energy:             0.000000
##########      Receptor Energy: 0.0
########## Receptor Desolvation:             0.000000
########## Receptor Hydrophobic:             0.000000
##########         Total Energy: -41.76
##########        Ligand Charge:             1.000000
##########            Arbitrary:    +999.9990
##########     heavy atom count:   20
##########           pose count:    1
##########        Ligand Energy:             0.000000
# num electro vdwattr vdwrepu polsolv apolsol rdesolv rhydroe totalscore fullpol fullapo
#   1    0.60   -0.41    0.02   -0.96   -0.05    0.00    0.00      -0.80   -4.23   -0.20
#   2    1.99   -0.65    0.08   -1.05   -0.06    0.00    0.00       0.30   -3.66   -0.22
#   3   -0.36   -0.61    0.10    0.49   -0.06    0.00    0.00      -0.45    1.79   -0.22
#   4    2.01   -0.57    0.13   -1.12   -0.04    0.00    0.00       0.42   -5.23   -0.17
#   5    9.56   -1.81    1.60   -3.87    0.09    0.00    0.00       5.57  -10.85    0.26
#   6  -17.50   -0.20    0.12    5.26    0.16    0.00    0.00     -12.17   14.45    0.43
#   7    1.27   -1.10    0.20   -0.50   -0.14    0.00    0.00      -0.27   -1.21   -0.35
#   8   -0.47   -1.19    0.34    0.36   -0.18    0.00    0.00      -1.15    0.87   -0.44
#   9    4.72   -1.03    0.06   -5.30    1.37    0.00    0.00      -0.18  -13.06    3.38
#  10   -0.26   -1.20    0.19    0.91   -0.15    0.00    0.00      -0.50    2.05   -0.33
#  11   -0.02   -1.62    0.30   -0.33   -0.15    0.00    0.00      -1.81   -0.76   -0.34
#  12    0.07   -1.79    0.51   -0.47   -0.19    0.00    0.00      -1.87   -1.13   -0.45
#  13    0.07   -2.15    0.74   -0.53   -0.23    0.00    0.00      -2.10   -1.11   -0.47
#  14    0.10   -2.18    0.54   -0.23   -0.18    0.00    0.00      -1.96   -0.42   -0.33
#  15   -1.79   -3.51    1.71   -0.79    0.33    0.00    0.00      -4.04   -1.24    0.52
#  16    0.61   -2.11    0.55    0.86    0.01    0.00    0.00      -0.08    1.30    0.02
#  17   -1.38   -1.49    0.16   -1.32    0.32    0.00    0.00      -3.70   -2.16    0.52
#  18    0.13   -1.69    0.39   -0.13   -0.19    0.00    0.00      -1.48   -0.22   -0.33
#  19   -0.43   -1.70    0.42   -0.50   -0.16    0.00    0.00      -2.37   -1.12   -0.37
#  20   -0.27   -0.53    0.03    0.18   -0.13    0.00    0.00      -0.73    0.58   -0.43
#  21    1.16   -1.03    0.28   -0.49   -0.11    0.00    0.00      -0.19   -1.41   -0.32
#  22   -0.08   -0.12    0.00    0.30   -0.03    0.00    0.00       0.08    2.50   -0.24
#  23    0.00   -0.17    0.02    0.26   -0.05    0.00    0.00       0.05    1.54   -0.28
#  24   -0.21   -0.08    0.00    0.02   -0.02    0.00    0.00      -0.28    0.31   -0.28
#  25   -1.62   -0.36    0.17    0.62   -0.05    0.00    0.00      -1.25    2.49   -0.22
#  26   -1.45   -0.26    0.06    0.38   -0.07    0.00    0.00      -1.33    1.63   -0.28
#  27   -1.48   -0.15    0.01    0.82   -0.04    0.00    0.00      -0.85    5.13   -0.28
#  28   -1.01   -0.12    0.01    0.19   -0.03    0.00    0.00      -0.97    1.59   -0.28
#  29   -1.15   -0.45    0.43    0.60   -0.05    0.00    0.00      -0.61    2.72   -0.21
#  30   -0.40   -0.07    0.00    0.16   -0.02    0.00    0.00      -0.33    2.17   -0.22
#  31   -3.67   -0.52    0.22    1.58   -0.07    0.00    0.00      -2.46    4.23   -0.18
#  32   -3.41   -0.37    0.08    2.16   -0.10    0.00    0.00      -1.64    5.91   -0.28
#  33   -1.70   -0.52    0.28    0.88   -0.08    0.00    0.00      -1.14    2.95   -0.28
#  34   -1.42   -0.68    0.39    1.27   -0.11    0.00    0.00      -0.56    3.28   -0.28
#  35   -0.18   -0.60    0.21    1.08   -0.07    0.00    0.00       0.44    2.71   -0.17
#  36   -0.05   -0.65    0.45    1.15   -0.12    0.00    0.00       0.77    2.51   -0.27
#  37   -0.37   -0.35    0.09    0.68   -0.07    0.00    0.00      -0.03    2.58   -0.28
#  38   -0.48   -0.49    0.19    0.31   -0.11    0.00    0.00      -0.59    0.80   -0.28
#  39    0.37   -0.79    0.40    0.90   -0.18    0.00    0.00       0.71    1.43   -0.28
#  40   -0.21   -1.14    1.21    0.68   -0.18    0.00    0.00       0.36    1.04   -0.28
#  41    1.15   -0.38    0.10    1.22   -0.09    0.00    0.00       2.00    3.64   -0.27
#  42   -1.17   -0.16    0.01    0.20   -0.03    0.00    0.00      -1.15    1.48   -0.20
#  43   -0.81   -0.16    0.01    0.49   -0.05    0.00    0.00      -0.51    3.06   -0.28
#  44   -2.88   -0.50    0.22    1.76   -0.08    0.00    0.00      -1.47    4.65   -0.22
#  45   -2.22   -0.33    0.09    1.04   -0.04    0.00    0.00      -1.45    3.93   -0.14
@<TRIPOS>MOLECULE
E1992552
   45    47     0     0     0
SMALL
USER_CHARGES


@<TRIPOS>ATOM
      1 C1         25.7800   22.8034   61.2526 C.3       1            -0.1742
      2 C2         24.6741   22.0436   60.5171 C.3       1            -0.1490
      3 C3         24.9353   20.5395   60.6174 C.3       1             0.0237
      4 C4         26.2881   20.2132   59.9816 C.3       1            -0.1849
      5 N1         23.8736   19.8100   59.9112 N.4       1            -0.3767
      6 H1         23.8646   20.0861   58.9406 H         1             0.4216
      7 C5         22.5749   20.1246   60.5211 C.3       1            -0.0542
      8 C6         22.5926   19.7197   61.9967 C.3       1             0.0324
      9 N2         22.8645   18.2794   62.1010 N.3       1            -0.5191
     10 C7         22.8271   17.8366   63.5011 C.3       1             0.0905
     11 C8         22.6168   16.3452   63.5509 C.ar      1            -0.0908
     12 C9         23.7070   15.4949   63.5580 C.ar      1            -0.0782
     13 C10        23.5199   14.1255   63.6036 C.ar      1            -0.0967
     14 C11        22.2384   13.6038   63.6423 C.ar      1             0.0466
     15 O1         21.7691   12.3255   63.6906 O.3       1            -0.3035
     16 C12        20.4004   12.3770   63.2606 C.3       1             0.2127
     17 O2         20.0138   13.6946   63.6791 O.3       1            -0.3080
     18 C13        21.1397   14.4607   63.6351 C.ar      1             0.0351
     19 C14        21.3340   15.8307   63.5951 C.ar      1            -0.1038
     20 C15        24.1540   17.9489   61.4784 C.3       1             0.0260
     21 C16        24.1254   18.3660   60.0066 C.3       1            -0.0622
     22 H2         25.5939   23.8750   61.1812 H         1             0.0515
     23 H3         25.7900   22.5053   62.3011 H         1             0.0718
     24 H4         26.7437   22.5709   60.7996 H         1             0.0846
     25 H5         23.7104   22.2761   60.9701 H         1             0.0870
     26 H6         24.6641   22.3416   59.4687 H         1             0.1120
     27 H7         24.9452   20.2414   61.6658 H         1             0.1386
     28 H8         26.4740   19.1415   60.0530 H         1             0.1067
     29 H9         26.2780   20.5110   58.9330 H         1             0.0799
     30 H10        27.0758   20.7545   60.5055 H         1             0.0809
     31 H11        22.3854   21.1950   60.4404 H         1             0.1307
     32 H12        21.7879   19.5764   60.0033 H         1             0.1384
     33 H13        23.3719   20.2760   62.5174 H         1             0.1274
     34 H14        21.6246   19.9409   62.4464 H         1             0.1064
     35 H15        23.7703   18.0869   63.9867 H         1             0.0479
     36 H16        22.0084   18.3364   64.0185 H         1             0.1050
     37 H17        24.7071   15.9012   63.5274 H         1             0.1425
     38 H18        24.3732   13.4635   63.6085 H         1             0.1426
     39 H19        20.3275   12.2741   62.1779 H         1             0.1383
     40 H20        19.8041   11.6166   63.7650 H         1             0.0904
     41 H21        20.4842   16.4971   63.5942 H         1             0.1254
     42 H22        24.9538   18.4821   61.9924 H         1             0.1270
     43 H23        24.3278   16.8752   61.5491 H         1             0.1054
     44 H24        23.3327   17.8241   59.4907 H         1             0.1393
     45 H25        25.0848   18.1333   59.5446 H         1             0.1332
@<TRIPOS>BOND
     1    1    2 1 
     2    1   22 1 
     3    1   23 1 
     4    1   24 1 
     5    2    3 1 
     6    2   25 1 
     7    2   26 1 
     8    3    4 1 
     9    3    5 1 
    10    3   27 1 
    11    4   28 1 
    12    4   29 1 
    13    4   30 1 
    14    5    6 1 
    15    5   21 1 
    16    5    7 1 
    17    7    8 1 
    18    7   31 1 
    19    7   32 1 
    20    8    9 1 
    21    8   33 1 
    22    8   34 1 
    23    9   10 1 
    24    9   20 1 
    25   10   11 1 
    26   10   35 1 
    27   10   36 1 
    28   11   19 ar
    29   11   12 ar
    30   12   13 ar
    31   12   37 1 
    32   13   14 ar
    33   13   38 1 
    34   14   18 ar
    35   14   15 1 
    36   15   16 1 
    37   16   17 1 
    38   16   39 1 
    39   16   40 1 
    40   17   18 1 
    41   18   19 ar
    42   19   41 1 
    43   20   21 1 
    44   20   42 1 
    45   20   43 1 
    46   21   44 1 
    47   21   45 1 
##########                 Name:            E43400518
##########          Protonation:                   92
##########               SMILES:   Cc1ccc(cc1C(=O)NCCC[NH+]2CC=CC2)[N+](=O)[O-]
##########            Long Name:   N-[3-(2,5-dihydro-1H-pyrrol-1-ium-1-yl)propyl]-2-methyl-5-nitro-benzamide
##########          FlexRecCode: 1
##########               Number:                  628
##########   Ligand Source File: /raidb/db2/rgc/leads-emolecules-300/leads-emolecules-2d-0000042.db2.gz
##########           GlobalRank: 1843
##########                 Rank:                    1
##########               Setnum:                  242
##########             Matchnum:                 3998
##########                Cloud:                    1
##########        Electrostatic:           -22.441227
##########        Van der Waals:           -22.757750
##########  Ligand Polar Desolv:             6.413637
########## Ligand Apolar Desolv:            -2.948953
##########      Internal Energy:             0.000000
##########      Receptor Energy: 0.0
########## Receptor Desolvation:             0.000000
########## Receptor Hydrophobic:             0.000000
##########         Total Energy: -41.73
##########        Ligand Charge:             1.000000
##########            Arbitrary:    +999.9990
##########     heavy atom count:   21
##########           pose count:    1
##########        Ligand Energy:             0.000000
# num electro vdwattr vdwrepu polsolv apolsol rdesolv rhydroe totalscore fullpol fullapo
#   1    0.47   -0.97    0.20   -0.43   -0.06    0.00    0.00      -0.80   -1.22   -0.18
#   2   -0.04   -1.54    0.30    0.07   -0.17    0.00    0.00      -1.38    0.17   -0.41
#   3    0.15   -2.13    0.65   -0.61   -0.22    0.00    0.00      -2.14   -1.24   -0.44
#   4   -0.05   -2.33    0.68   -0.21   -0.26    0.00    0.00      -2.17   -0.37   -0.45
#   5   -0.26   -1.71    0.39   -0.48   -0.41    0.00    0.00      -2.47   -0.83   -0.70
#   6   -0.10   -1.67    0.39    0.05   -0.19    0.00    0.00      -1.52    0.10   -0.41
#   7   -0.13   -1.55    0.29   -0.74   -0.17    0.00    0.00      -2.32   -1.74   -0.41
#   8   -0.93   -1.80    0.36    3.16   -0.29    0.00    0.00       0.50    7.02   -0.64
#   9    0.16   -3.99    2.30   -2.65    0.17    0.00    0.00      -4.01   -5.13    0.32
#  10    5.66   -1.17    0.08   -5.35    0.96    0.00    0.00       0.17  -12.93    2.31
#  11   -1.65   -1.52    0.64    0.93   -0.18    0.00    0.00      -1.76    2.24   -0.42
#  12    3.21   -0.89    0.14   -1.64   -0.08    0.00    0.00       0.74   -4.37   -0.22
#  13   -0.04   -0.57    0.05    0.19   -0.10    0.00    0.00      -0.47    0.65   -0.33
#  14    8.67   -2.34    4.87   -3.40    0.14    0.00    0.00       7.94  -11.82    0.50
#  15  -18.54   -0.30    0.35    5.26    0.18    0.00    0.00     -13.05   16.20    0.56
#  16   -0.15   -0.70    0.24    0.21   -0.10    0.00    0.00      -0.49    0.87   -0.41
#  17    0.76   -1.26    0.43   -1.29   -0.13    0.00    0.00      -1.50   -4.93   -0.51
#  18    0.75   -1.62    0.61   -1.46   -0.15    0.00    0.00      -1.87   -4.95   -0.51
#  19   -0.23   -1.24    0.76    0.36   -0.15    0.00    0.00      -0.49    1.19   -0.49
#  20    0.16   -2.07    0.42    0.12    0.26    0.00    0.00      -1.11    0.19    0.43
#  21   -1.15   -2.04    0.73   -0.31   -0.37    0.00    0.00      -3.15   -0.53   -0.63
#  22   -0.20   -3.13    1.55   -0.47   -0.41    0.00    0.00      -2.65   -0.72   -0.63
#  23   -0.30   -0.21    0.02    0.17   -0.06    0.00    0.00      -0.39    0.74   -0.28
#  24   -0.43   -0.16    0.01    0.16   -0.04    0.00    0.00      -0.47    1.04   -0.28
#  25   -0.33   -0.85    0.90    0.22   -0.07    0.00    0.00      -0.13    0.67   -0.21
#  26   -0.92   -0.67    0.71    1.01   -0.11    0.00    0.00       0.01    2.46   -0.28
#  27    0.94   -0.78    0.36    0.76   -0.15    0.00    0.00       1.13    1.34   -0.27
#  28    1.60   -0.36    0.08    1.18   -0.07    0.00    0.00       2.42    3.47   -0.21
#  29   -3.95   -0.01    0.00    1.83    0.09    0.00    0.00      -2.05    9.15    0.44
#  30   -1.24   -1.00    1.08    0.56   -0.12    0.00    0.00      -0.71    1.34   -0.28
#  31   -0.79   -0.69    0.33    0.52   -0.11    0.00    0.00      -0.74    1.37   -0.28
#  32   -2.40   -0.31    0.05    1.23   -0.09    0.00    0.00      -1.52    3.81   -0.28
#  33   -2.03   -0.36    0.15    1.05   -0.07    0.00    0.00      -1.26    3.70   -0.26
#  34   -1.32   -0.14    0.01    0.67   -0.04    0.00    0.00      -0.81    4.81   -0.27
#  35   -1.90   -0.14    0.01    0.79   -0.04    0.00    0.00      -1.29    5.39   -0.28
#  36   -1.59   -0.22    0.05    1.04   -0.05    0.00    0.00      -0.77    5.31   -0.28
#  37   -0.96   -0.09    0.00    0.41   -0.02    0.00    0.00      -0.66    4.94   -0.26
#  38    0.01   -0.21    0.05    0.51   -0.05    0.00    0.00       0.30    2.68   -0.28
#  39    0.03   -0.30    0.06    0.70   -0.07    0.00    0.00       0.42    2.68   -0.28
#  40   -1.10   -0.11    0.01    0.54   -0.03    0.00    0.00      -0.69    4.99   -0.26
#  41   -2.29   -0.83    0.91    1.79   -0.10    0.00    0.00      -0.52    5.22   -0.28
@<TRIPOS>MOLECULE
E43400518
   41    42     0     0     0
SMALL
USER_CHARGES


@<TRIPOS>ATOM
      1 C1         24.7906   15.8607   63.1264 C.3       1            -0.1339
      2 C2         23.4070   15.2841   63.2815 C.ar      1             0.0323
      3 C3         23.2210   13.9172   63.2574 C.ar      1            -0.1226
      4 C4         21.9515   13.3863   63.3997 C.ar      1            -0.0204
      5 C5         20.8605   14.2209   63.5673 C.ar      1            -0.0633
      6 C6         21.0328   15.5892   63.5937 C.ar      1            -0.0194
      7 C7         22.3117   16.1313   63.4556 C.ar      1            -0.1494
      8 C8         22.5045   17.5968   63.4881 C.2       1             0.5701
      9 O1         22.7180   18.1584   64.5447 O.2       1            -0.5086
     10 N1         22.4436   18.3099   62.3461 N.am      1            -0.7330
     11 C9         22.6345   19.7620   62.3782 C.3       1             0.1246
     12 C10        23.2509   20.2248   61.0565 C.3       1            -0.1647
     13 C11        24.6027   19.5368   60.8557 C.3       1             0.0029
     14 N2         25.1945   19.9810   59.5867 N.4       1            -0.3953
     15 H1         24.4882   20.0540   58.8698 H         1             0.4322
     16 C12        25.9012   21.2724   59.7606 C.3       1             0.0133
     17 C13        27.1022   21.1976   58.8464 C.2       1            -0.1604
     18 C14        27.3177   19.9504   58.5104 C.2       1            -0.1602
     19 C15        26.2793   19.0638   59.1636 C.3       1             0.0169
     20 N3         19.5058   13.6441   63.7183 N.pl3     1             0.0328
     21 O2         18.5517   14.3720   63.8649 O.2       1            -0.1425
     22 O3         19.3534   12.4450   63.6951 O.3       1            -0.1607
     23 H2         25.5097   15.0512   63.0021 H         1             0.0923
     24 H3         24.8181   16.5087   62.2503 H         1             0.0750
     25 H4         25.0448   16.4395   64.0143 H         1             0.1024
     26 H5         24.0682   13.2602   63.1268 H         1             0.1605
     27 H6         21.8111   12.3155   63.3793 H         1             0.1639
     28 H7         20.1805   16.2395   63.7246 H         1             0.1517
     29 H8         22.2730   17.8617   61.5029 H         1             0.4038
     30 H9         21.6715   20.2522   62.5213 H         1             0.0829
     31 H10        23.3007   20.0227   63.2007 H         1             0.0832
     32 H11        22.5848   19.9639   60.2340 H         1             0.0972
     33 H12        23.3930   21.3051   61.0803 H         1             0.0964
     34 H13        25.2688   19.7976   61.6781 H         1             0.1361
     35 H14        24.4606   18.4564   60.8318 H         1             0.1386
     36 H15        25.2544   22.0992   59.4673 H         1             0.1409
     37 H16        26.2214   21.3911   60.7957 H         1             0.1447
     38 H17        27.6915   22.0421   58.5208 H         1             0.1759
     39 H18        28.1123   19.6069   57.8646 H         1             0.1760
     40 H19        26.7062   18.5588   60.0303 H         1             0.1455
     41 H20        25.8990   18.3332   58.4497 H         1             0.1424
@<TRIPOS>BOND
     1    1    2 1 
     2    1   23 1 
     3    1   24 1 
     4    1   25 1 
     5    2    7 ar
     6    2    3 ar
     7    3    4 ar
     8    3   26 1 
     9    4    5 ar
    10    4   27 1 
    11    5    6 ar
    12    5   20 1 
    13    6    7 ar
    14    6   28 1 
    15    7    8 1 
    16    8    9 2 
    17    8   10 am
    18   10   11 1 
    19   10   29 1 
    20   11   12 1 
    21   11   30 1 
    22   11   31 1 
    23   12   13 1 
    24   12   32 1 
    25   12   33 1 
    26   13   14 1 
    27   13   34 1 
    28   13   35 1 
    29   14   15 1 
    30   14   19 1 
    31   14   16 1 
    32   16   17 1 
    33   16   36 1 
    34   16   37 1 
    35   17   18 2 
    36   17   38 1 
    37   18   19 1 
    38   18   39 1 
    39   19   40 1 
    40   19   41 1 
    41   20   21 2 
    42   20   22 1 
##########                 Name:            E24853296
##########          Protonation:                   94
##########               SMILES:   Cc1oc(cc1)C[NH+]2CC[C@@H](CC2)Cn3nnc(c3)CO
##########            Long Name:   -[(5-methyl-2-furyl)methyl]piperidin-1-ium-4-yl]methyl]triazol-4-yl]methanol
##########          FlexRecCode: 1
##########               Number:                  286
##########   Ligand Source File: /raidb/db2/rgc/leads-emolecules-300/leads-emolecules-3-au-0000016.db2.gz
##########           GlobalRank: 1843
##########                 Rank:                    1
##########               Setnum:                   71
##########             Matchnum:                 3016
##########                Cloud:                    1
##########        Electrostatic:           -29.480442
##########        Van der Waals:           -23.320440
##########  Ligand Polar Desolv:            11.451561
########## Ligand Apolar Desolv:            -0.383132
##########      Internal Energy:             0.000000
##########      Receptor Energy: 0.0
########## Receptor Desolvation:             0.000000
########## Receptor Hydrophobic:             0.000000
##########         Total Energy: -41.73
##########        Ligand Charge:             1.000000
##########            Arbitrary:    +999.9990
##########     heavy atom count:   21
##########           pose count:    1
##########        Ligand Energy:             0.000000
# num electro vdwattr vdwrepu polsolv apolsol rdesolv rhydroe totalscore fullpol fullapo
#   1   -0.04   -0.26    0.01   -0.19   -0.03    0.00    0.00      -0.50   -1.25   -0.20
#   2   -0.11   -0.44    0.01   -0.09   -0.06    0.00    0.00      -0.69   -0.48   -0.33
#   3    0.42   -0.56    0.02   -0.91   -0.12    0.00    0.00      -1.14   -4.03   -0.51
#   4    1.05   -0.93    0.12   -0.96   -0.12    0.00    0.00      -0.83   -3.53   -0.43
#   5    1.44   -1.08    0.19   -0.38   -0.08    0.00    0.00       0.10   -1.30   -0.28
#   6   -1.75   -1.27    0.59    0.95   -0.12    0.00    0.00      -1.60    2.63   -0.33
#   7    9.39   -1.47    0.59   -4.22    0.16    0.00    0.00       4.45  -11.09    0.43
#   8  -15.33   -0.10    0.02    5.35    0.20    0.00    0.00      -9.85   15.07    0.56
#   9    0.25   -1.15    0.21   -0.06   -0.18    0.00    0.00      -0.94   -0.13   -0.39
#  10    1.79   -0.87    0.09   -1.72   -0.10    0.00    0.00      -0.80   -3.71   -0.21
#  11    0.93   -0.66    0.04   -0.95   -0.06    0.00    0.00      -0.71   -2.37   -0.16
#  12   -0.17   -1.21    0.24    0.73   -0.20    0.00    0.00      -0.61    1.62   -0.44
#  13   -1.07   -1.82    0.47   -1.54    0.40    0.00    0.00      -3.57   -3.44    0.90
#  14   -0.06   -1.67    0.40   -0.01   -0.44    0.00    0.00      -1.79   -0.03   -0.94
#  15   -0.10   -1.62    0.30   -0.40   -0.46    0.00    0.00      -2.28   -0.69   -0.79
#  16    0.56   -1.47    0.23    0.88   -0.09    0.00    0.00       0.11    1.40   -0.15
#  17   -3.19   -3.21    1.28   -3.84    1.08    0.00    0.00      -7.89   -5.99    1.68
#  18   -2.39   -1.64    0.22   -0.92    0.62    0.00    0.00      -4.11   -1.77    1.20
#  19   -0.94   -2.61    1.50   -0.49    0.23    0.00    0.00      -2.32   -1.04    0.49
#  20    1.49   -0.62    0.05   -1.31   -0.07    0.00    0.00      -0.47   -4.01   -0.21
#  21    0.05   -0.64    0.08    0.18   -0.13    0.00    0.00      -0.45    0.60   -0.42
#  22    1.26   -0.48    0.02   -0.76    0.06    0.00    0.00       0.09   -3.44    0.25
#  23    0.13   -0.13    0.01    0.13   -0.03    0.00    0.00       0.11    1.03   -0.28
#  24    0.15   -0.07    0.00    0.08   -0.02    0.00    0.00       0.15    1.33   -0.28
#  25   -0.02   -0.06    0.00    0.06   -0.02    0.00    0.00      -0.03    1.06   -0.28
#  26    0.01   -0.13    0.01    0.27   -0.04    0.00    0.00       0.12    1.89   -0.28
#  27   -1.65   -0.22    0.03    0.98   -0.05    0.00    0.00      -0.90    5.00   -0.26
#  28   -2.70   -0.69    0.97    1.65   -0.08    0.00    0.00      -0.85    5.65   -0.28
#  29   -4.46   -0.62    0.38    2.31   -0.06    0.00    0.00      -2.44    6.20   -0.15
#  30   -3.66   -0.59    0.38    1.56   -0.09    0.00    0.00      -2.41    3.85   -0.23
#  31   -3.23   -0.46    0.11    1.95   -0.12    0.00    0.00      -1.75    4.64   -0.28
#  32   -1.26   -0.45    0.13    1.35   -0.07    0.00    0.00      -0.29    3.93   -0.19
#  33   -1.02   -0.32    0.10    0.97   -0.09    0.00    0.00      -0.37    2.96   -0.28
#  34   -0.88   -0.24    0.06    0.30   -0.06    0.00    0.00      -0.82    1.47   -0.28
#  35   -0.14   -0.47    0.12    1.63   -0.10    0.00    0.00       1.04    4.37   -0.28
#  36   -0.13   -0.65    0.39    1.02   -0.13    0.00    0.00       0.50    2.18   -0.28
#  37    0.16   -0.30    0.04    1.22   -0.09    0.00    0.00       1.03    3.70   -0.28
#  38    0.17   -0.58    0.23    0.22   -0.15    0.00    0.00      -0.11    0.40   -0.28
#  39    0.22   -0.51    0.11    0.38   -0.16    0.00    0.00       0.03    0.65   -0.28
#  40    1.26   -0.06    0.00    3.22    0.68    0.00    0.00       5.10    5.86    1.24
#  41   -0.84   -0.29    0.04    1.02   -0.05    0.00    0.00      -0.12    3.99   -0.21
#  42   -0.91   -0.21    0.04    0.12   -0.04    0.00    0.00      -1.00    0.75   -0.27
#  43   -2.32   -0.25    0.04    1.01   -0.07    0.00    0.00      -1.59    4.22   -0.28
#  44   -1.83   -0.14    0.01    0.66   -0.03    0.00    0.00      -1.33    5.35   -0.28
@<TRIPOS>MOLECULE
E24853296
   44    46     0     0     0
SMALL
USER_CHARGES


@<TRIPOS>ATOM
      1 C1         28.2799   22.0107   61.1619 C.3       1            -0.0912
      2 C2         26.7916   22.2328   61.0779 C.2       1             0.0480
      3 C3         26.1795   23.4251   60.9617 C.2       1            -0.2220
      4 C4         24.7898   23.1694   60.9177 C.2       1            -0.1362
      5 C5         24.6356   21.8363   61.0099 C.2       1            -0.1139
      6 C6         23.3216   21.0986   61.0043 C.3       1             0.0821
      7 N1         23.4167   19.9354   60.1121 N.4       1            -0.3829
      8 H1         23.6320   20.2471   59.1770 H         1             0.4306
      9 C7         22.1350   19.2201   60.1051 C.3       1            -0.0108
     10 C8         21.7651   18.8144   61.5333 C.3       1            -0.1421
     11 C9         22.8577   17.9020   62.0982 C.3       1            -0.1155
     12 C10        22.5341   17.5566   63.5532 C.3       1             0.1216
     13 N2         21.5337   16.4870   63.5903 N.pl3     1            -0.3027
     14 C11        21.7933   15.1592   63.6164 C.2       1            -0.0227
     15 C12        20.5899   14.5402   63.6462 C.2       1            -0.0204
     16 C13        20.3408   13.0544   63.6830 C.3       1             0.1612
     17 O1         21.5907   12.3617   63.6823 O.3       1            -0.5750
     18 N3         19.6653   15.5068   63.6368 N.2       1            -0.2507
     19 N4         20.2569   16.6488   63.6091 N.2       1            -0.0824
     20 C14        24.2027   18.6311   62.0319 C.3       1            -0.1481
     21 C15        24.4811   19.0428   60.5862 C.3       1            -0.0031
     22 O2         25.8518   21.2738   61.1008 O.3       1            -0.1672
     23 H2         28.7935   22.9712   61.1192 H         1             0.0841
     24 H3         28.5204   21.5114   62.1004 H         1             0.0991
     25 H4         28.6021   21.3891   60.3265 H         1             0.0999
     26 H5         26.6581   24.3921   60.9121 H         1             0.1630
     27 H6         24.0027   23.9036   60.8279 H         1             0.1595
     28 H7         23.0890   20.7632   62.0151 H         1             0.1449
     29 H8         22.5332   21.7634   60.6516 H         1             0.1559
     30 H9         21.3592   19.8696   59.6999 H         1             0.1350
     31 H10        22.2208   18.3277   59.4850 H         1             0.1366
     32 H11        21.6786   19.7061   62.1542 H         1             0.0927
     33 H12        20.8141   18.2819   61.5258 H         1             0.1220
     34 H13        22.9086   16.9864   61.5090 H         1             0.1131
     35 H14        23.4409   17.2235   64.0579 H         1             0.1118
     36 H15        22.1410   18.4393   64.0574 H         1             0.1113
     37 H16        22.7652   14.6881   63.6138 H         1             0.1964
     38 H17        19.7856   12.8015   64.5862 H         1             0.0730
     39 H18        19.7625   12.7611   62.8069 H         1             0.0717
     40 H19        22.1388   12.5400   62.9058 H         1             0.3968
     41 H20        24.1668   19.5191   62.6631 H         1             0.0927
     42 H21        24.9941   17.9676   62.3807 H         1             0.1109
     43 H22        24.5169   18.1542   59.9559 H         1             0.1368
     44 H23        25.4385   19.5613   60.5363 H         1             0.1360
@<TRIPOS>BOND
     1    1    2 1 
     2    1   23 1 
     3    1   24 1 
     4    1   25 1 
     5    2   22 1 
     6    2    3 2 
     7    3    4 1 
     8    3   26 1 
     9    4    5 2 
    10    4   27 1 
    11    5    6 1 
    12    5   22 1 
    13    6    7 1 
    14    6   28 1 
    15    6   29 1 
    16    7    8 1 
    17    7   21 1 
    18    7    9 1 
    19    9   10 1 
    20    9   30 1 
    21    9   31 1 
    22   10   11 1 
    23   10   32 1 
    24   10   33 1 
    25   11   12 1 
    26   11   20 1 
    27   11   34 1 
    28   12   13 1 
    29   12   35 1 
    30   12   36 1 
    31   13   19 1 
    32   13   14 1 
    33   14   15 2 
    34   14   37 1 
    35   15   16 1 
    36   15   18 1 
    37   16   17 1 
    38   16   38 1 
    39   16   39 1 
    40   17   40 1 
    41   18   19 2 
    42   20   21 1 
    43   20   41 1 
    44   20   42 1 
    45   21   43 1 
    46   21   44 1 
##########                 Name:             E6899317
##########          Protonation:                  100
##########               SMILES:   Cc1cc(ccc1OC)c2c(cn(n2)c3ccccc3)C=O
##########            Long Name:   3-(4-methoxy-3-methyl-phenyl)-1-phenyl-pyrazole-4-carbaldehyde
##########          FlexRecCode: 1
##########               Number:                  412
##########   Ligand Source File: /raidb/db2/rgc/leads-emolecules-300/leads-emolecules-2e-0000393.db2.gz
##########           GlobalRank: 1868
##########                 Rank:                    1
##########               Setnum:                   14
##########             Matchnum:                 3386
##########                Cloud:                    1
##########        Electrostatic:            -8.852863
##########        Van der Waals:           -33.350117
##########  Ligand Polar Desolv:             4.950589
########## Ligand Apolar Desolv:            -4.454785
##########      Internal Energy:             0.000000
##########      Receptor Energy: 0.0
########## Receptor Desolvation:             0.000000
########## Receptor Hydrophobic:             0.000000
##########         Total Energy: -41.71
##########        Ligand Charge:             0.000000
##########            Arbitrary:    +999.9990
##########     heavy atom count:   22
##########           pose count:    1
##########        Ligand Energy:             0.000000
# num electro vdwattr vdwrepu polsolv apolsol rdesolv rhydroe totalscore fullpol fullapo
#   1   -0.36   -0.68    0.08    0.01    0.01    0.00    0.00      -0.94    0.02    0.03
#   2    4.67   -0.68    0.04    0.11    0.26    0.00    0.00       4.40    0.35    0.84
#   3   -1.70   -0.87    0.04   -0.07   -0.11    0.00    0.00      -2.71   -0.18   -0.31
#   4    1.35   -1.27    0.17   -0.06   -0.16    0.00    0.00       0.03   -0.16   -0.42
#   5    0.10   -1.53    0.22    0.00   -0.17    0.00    0.00      -1.39   -0.01   -0.41
#   6    0.00   -1.44    0.29    0.09   -0.17    0.00    0.00      -1.24    0.21   -0.40
#   7    0.28   -1.65    0.57    0.07   -0.19    0.00    0.00      -0.92    0.17   -0.44
#   8    1.60   -1.23    0.14    0.15   -0.17    0.00    0.00       0.49    0.35   -0.41
#   9    2.65   -1.65    0.54    0.07   -0.10    0.00    0.00       1.51    0.14   -0.20
#  10    1.12   -1.70    0.38   -0.32   -0.36    0.00    0.00      -0.88   -0.70   -0.77
#  11   -4.24   -2.44    1.13    0.97    0.57    0.00    0.00      -4.02    1.88    1.10
#  12   -3.26   -1.77    0.24    0.77    0.41    0.00    0.00      -3.61    1.34    0.72
#  13    0.80   -1.97    0.44   -0.20   -0.54    0.00    0.00      -1.46   -0.34   -0.90
#  14   -1.52   -1.67    0.30    0.60   -0.25    0.00    0.00      -2.53    1.04   -0.43
#  15    0.96   -2.08    0.50   -0.38   -0.13    0.00    0.00      -1.14   -0.69   -0.23
#  16   -2.43   -3.36    1.23    1.74    0.27    0.00    0.00      -2.55    2.81    0.43
#  17    1.70   -2.18    0.53   -0.19   -0.45    0.00    0.00      -0.59   -0.31   -0.71
#  18   -0.67   -3.35    1.76   -0.01   -0.28    0.00    0.00      -2.54   -0.01   -0.44
#  19   -0.30   -4.07    2.78   -0.12   -0.30    0.00    0.00      -2.02   -0.19   -0.47
#  20   -1.22   -2.76    1.27   -0.16   -0.30    0.00    0.00      -3.16   -0.25   -0.47
#  21   -1.42   -2.64    0.83   -0.01   -0.29    0.00    0.00      -3.53   -0.02   -0.47
#  22   -1.90   -2.59    0.74    0.24   -0.27    0.00    0.00      -3.78    0.41   -0.45
#  23   -0.75   -0.14    0.01    0.05   -0.03    0.00    0.00      -0.86    0.35   -0.26
#  24   -2.16   -0.28    0.06    0.15   -0.08    0.00    0.00      -2.31    0.55   -0.28
#  25   -0.57   -0.31    0.07    0.07   -0.06    0.00    0.00      -0.80    0.32   -0.27
#  26   -1.06   -0.54    0.45    0.19   -0.06    0.00    0.00      -1.02    0.71   -0.22
#  27    0.16   -0.55    0.23    0.18   -0.08    0.00    0.00      -0.06    0.47   -0.21
#  28   -0.72   -0.42    0.13   -0.18   -0.12    0.00    0.00      -1.31   -0.44   -0.28
#  29   -1.78   -0.77    0.75   -0.03   -0.13    0.00    0.00      -1.96   -0.06   -0.28
#  30   -1.90   -0.53    0.28   -0.02   -0.11    0.00    0.00      -2.27   -0.05   -0.28
#  31   -2.14   -0.79    0.44   -0.06   -0.13    0.00    0.00      -2.67   -0.12   -0.26
#  32    0.59   -0.57    0.29    0.05   -0.12    0.00    0.00       0.24    0.10   -0.24
#  33   -0.08   -0.34    0.07    0.13   -0.08    0.00    0.00      -0.29    0.37   -0.22
#  34    0.06   -0.85    0.54    0.22   -0.13    0.00    0.00      -0.16    0.38   -0.23
#  35   -0.53   -1.23    1.17    0.58   -0.18    0.00    0.00      -0.19    0.92   -0.28
#  36    1.21   -0.44    0.07    0.41   -0.14    0.00    0.00       1.12    0.84   -0.28
#  37    1.81   -0.63    0.26    0.20   -0.15    0.00    0.00       1.49    0.39   -0.28
#  38    2.77   -0.66    0.24   -0.28   -0.14    0.00    0.00       1.93   -0.53   -0.26
@<TRIPOS>MOLECULE
E6899317
   38    40     0     0     0
SMALL
USER_CHARGES


@<TRIPOS>ATOM
      1 C1         24.3908   20.6066   61.2103 C.3       1             0.0240
      2 O1         24.4485   19.2094   60.9158 O.3       1            -0.3108
      3 C2         23.5373   18.4117   61.5315 C.ar      1             0.1433
      4 C3         23.8303   17.8467   62.7645 C.ar      1            -0.2032
      5 C4         22.9071   17.0365   63.3906 C.ar      1            -0.0582
      6 C5         21.6772   16.7844   62.7832 C.ar      1            -0.0610
      7 C6         21.3853   17.3533   61.5439 C.ar      1            -0.0458
      8 C7         22.3113   18.1668   60.9253 C.ar      1            -0.1155
      9 C8         21.9945   18.7865   59.5887 C.3       1            -0.1070
     10 C9         20.6827   15.9135   63.4530 C.2       1             0.1762
     11 N1         19.4668   16.2517   63.8168 N.2       1            -0.2781
     12 N2         18.8437   15.1533   64.4154 N.pl3     1            -0.3065
     13 C10        19.6843   14.1062   64.4275 C.2       1             0.1347
     14 C11        20.8673   14.5063   63.8306 C.2       1            -0.3265
     15 C12        22.0653   13.6903   63.6208 C.2       1             0.4137
     16 O2         22.0822   12.5327   63.9843 O.2       1            -0.4731
     17 C13        17.5394   15.1460   64.9261 C.ar      1             0.1444
     18 C14        17.2163   14.3237   65.9976 C.ar      1            -0.1374
     19 C15        15.9296   14.3190   66.4992 C.ar      1            -0.0919
     20 C16        14.9632   15.1313   65.9353 C.ar      1            -0.1221
     21 C17        15.2817   15.9515   64.8682 C.ar      1            -0.0956
     22 C18        16.5681   15.9651   64.3658 C.ar      1            -0.1124
     23 H1         25.1713   21.1274   60.6557 H         1             0.0585
     24 H2         23.4159   20.9990   60.9207 H         1             0.1026
     25 H3         24.5409   20.7591   62.2791 H         1             0.0579
     26 H4         24.7828   18.0423   63.2343 H         1             0.1369
     27 H5         23.1363   16.5970   64.3501 H         1             0.1314
     28 H6         20.4339   17.1600   61.0709 H         1             0.1356
     29 H7         20.9956   18.4833   59.2750 H         1             0.0708
     30 H8         22.0347   19.8726   59.6732 H         1             0.0672
     31 H9         22.7241   18.4523   58.8511 H         1             0.0725
     32 H10        19.4732   13.1254   64.8275 H         1             0.1930
     33 H11        22.9336   14.1188   63.1424 H         1             0.1070
     34 H12        17.9705   13.6883   66.4379 H         1             0.1320
     35 H13        15.6778   13.6797   67.3325 H         1             0.1363
     36 H14        13.9574   15.1255   66.3288 H         1             0.1319
     37 H15        14.5246   16.5848   64.4298 H         1             0.1351
     38 H16        16.8173   16.6089   63.5353 H         1             0.1399
@<TRIPOS>BOND
     1    1    2 1 
     2    1   23 1 
     3    1   24 1 
     4    1   25 1 
     5    2    3 1 
     6    3    8 ar
     7    3    4 ar
     8    4    5 ar
     9    4   26 1 
    10    5    6 ar
    11    5   27 1 
    12    6    7 ar
    13    6   10 1 
    14    7    8 ar
    15    7   28 1 
    16    8    9 1 
    17    9   29 1 
    18    9   30 1 
    19    9   31 1 
    20   10   14 1 
    21   10   11 2 
    22   11   12 1 
    23   12   13 1 
    24   12   17 1 
    25   13   14 2 
    26   13   32 1 
    27   14   15 1 
    28   15   16 2 
    29   15   33 1 
    30   17   22 ar
    31   17   18 ar
    32   18   19 ar
    33   18   34 1 
    34   19   20 ar
    35   19   35 1 
    36   20   21 ar
    37   20   36 1 
    38   21   22 ar
    39   21   37 1 
    40   22   38 1 
##########                 Name:            E45757473
##########          Protonation:                   97
##########               SMILES:   COCC[NH+]1CC[C@@H](CC1)CNC(=O)c2nccnc2N
##########            Long Name:   ino-N-[[1-(2-methoxyethyl)piperidin-1-ium-4-yl]methyl]pyrazine-2-carboxamide
##########          FlexRecCode: 1
##########               Number:                  300
##########   Ligand Source File: /raidb/db2/rgc/leads-emolecules-300/leads-emolecules-2f-0000317.db2.gz
##########           GlobalRank: 1868
##########                 Rank:                    1
##########               Setnum:                   49
##########             Matchnum:                  900
##########                Cloud:                    1
##########        Electrostatic:           -23.799654
##########        Van der Waals:           -25.977345
##########  Ligand Polar Desolv:             8.336477
########## Ligand Apolar Desolv:            -0.271646
##########      Internal Energy:             0.000000
##########      Receptor Energy: 0.0
########## Receptor Desolvation:             0.000000
########## Receptor Hydrophobic:             0.000000
##########         Total Energy: -41.71
##########        Ligand Charge:             1.000000
##########            Arbitrary:    +999.9990
##########     heavy atom count:   21
##########           pose count:    1
##########        Ligand Energy:             0.000000
# num electro vdwattr vdwrepu polsolv apolsol rdesolv rhydroe totalscore fullpol fullapo
#   1   -0.09   -0.41    0.02    0.12    0.01    0.00    0.00      -0.36    0.47    0.03
#   2    3.12   -0.78    0.09   -2.37    0.36    0.00    0.00       0.42   -8.56    1.29
#   3   -0.31   -0.63    0.07    0.08   -0.03    0.00    0.00      -0.83    0.27   -0.12
#   4    0.28   -1.17    0.31    0.03   -0.11    0.00    0.00      -0.65    0.09   -0.32
#   5    8.81   -1.57    1.30   -3.57    0.14    0.00    0.00       5.10  -10.96    0.43
#   6  -13.51   -0.11    0.03    3.76    0.13    0.00    0.00      -9.68   14.55    0.52
#   7    0.13   -1.36    0.55    0.19   -0.17    0.00    0.00      -0.66    0.46   -0.42
#   8    2.33   -0.77    0.05   -1.65   -0.09    0.00    0.00      -0.13   -3.78   -0.21
#   9    1.09   -0.72    0.04   -0.81   -0.06    0.00    0.00      -0.46   -2.09   -0.16
#  10   -0.47   -1.62    0.46    0.83   -0.18    0.00    0.00      -0.98    1.76   -0.38
#  11   -1.75   -2.27    0.97   -4.18    1.02    0.00    0.00      -6.20   -9.07    2.22
#  12    0.81   -1.66    0.35    1.86   -0.29    0.00    0.00       1.08    4.31   -0.66
#  13    0.62   -1.43    0.22   -1.15    0.13    0.00    0.00      -1.60   -2.82    0.33
#  14   -0.25   -1.67    0.40   -0.33   -0.37    0.00    0.00      -2.22   -0.65   -0.74
#  15    0.92   -2.12    0.51    0.76   -1.17    0.00    0.00      -1.10    1.38   -2.12
#  16    1.05   -2.51    0.90   -1.75    0.45    0.00    0.00      -1.86   -3.49    0.90
#  17   -2.41   -3.28    1.03   -1.66    1.31    0.00    0.00      -5.02   -2.60    2.05
#  18    0.39   -2.89    0.70    0.74   -0.64    0.00    0.00      -1.69    1.13   -0.97
#  19   -0.12   -2.03    0.46   -0.08   -0.59    0.00    0.00      -2.35   -0.13   -0.97
#  20   -2.44   -1.54    0.20   -1.85    1.02    0.00    0.00      -4.61   -3.35    1.85
#  21    1.43   -0.98    0.17   -1.30   -0.07    0.00    0.00      -0.74   -3.93   -0.21
#  22    0.14   -0.48    0.03    0.03   -0.10    0.00    0.00      -0.39    0.13   -0.40
#  23   -0.24   -0.17    0.01    0.21   -0.05    0.00    0.00      -0.23    1.23   -0.28
#  24   -0.14   -0.13    0.01    0.06   -0.03    0.00    0.00      -0.24    0.45   -0.28
#  25   -0.06   -0.09    0.00    0.10   -0.02    0.00    0.00      -0.07    1.18   -0.28
#  26   -0.47   -0.14    0.01    0.34   -0.03    0.00    0.00      -0.28    2.58   -0.22
#  27   -1.00   -0.21    0.03    0.27   -0.05    0.00    0.00      -0.96    1.41   -0.28
#  28   -3.35   -0.57    0.61    1.45   -0.05    0.00    0.00      -1.91    4.65   -0.15
#  29   -4.09   -0.93    1.10    1.71   -0.11    0.00    0.00      -2.32    4.43   -0.28
#  30   -4.48   -0.87    0.74    2.26   -0.13    0.00    0.00      -2.47    4.99   -0.28
#  31   -2.86   -0.40    0.12    1.66   -0.09    0.00    0.00      -1.57    5.07   -0.28
#  32   -1.78   -0.32    0.05    0.88   -0.07    0.00    0.00      -1.24    2.68   -0.21
#  33   -1.59   -0.23    0.02    0.68   -0.09    0.00    0.00      -1.21    2.19   -0.28
#  34   -0.81   -0.15    0.01    0.43   -0.04    0.00    0.00      -0.57    2.73   -0.28
#  35   -0.17   -0.79    0.29    0.52   -0.14    0.00    0.00      -0.30    1.04   -0.28
#  36   -0.49   -0.81    0.39    0.27   -0.13    0.00    0.00      -0.78    0.57   -0.28
#  37    4.06   -0.05    0.00    2.45    0.17    0.00    0.00       6.64    6.81    0.47
#  38   -0.63   -0.03    0.00    0.54    0.12    0.00    0.00       0.00    1.64    0.36
#  39   -1.81   -0.07    0.01    0.95    0.27    0.00    0.00      -0.66    2.09    0.59
#  40   -0.50   -1.16    1.35    1.89   -0.18    0.00    0.00       1.40    2.90   -0.28
#  41    1.19   -0.69    0.82    1.62   -0.12    0.00    0.00       2.81    3.73   -0.28
#  42   -1.04   -0.58    0.33    0.74   -0.06    0.00    0.00      -0.62    2.50   -0.22
#  43   -0.79   -0.63    0.46    0.60   -0.07    0.00    0.00      -0.43    2.04   -0.25
#  44   -1.46   -0.11    0.00    0.57   -0.03    0.00    0.00      -1.03    5.19   -0.28
#  45   -1.06   -0.10    0.00    0.42   -0.02    0.00    0.00      -0.75    4.22   -0.21
@<TRIPOS>MOLECULE
E45757473
   45    46     0     0     0
SMALL
USER_CHARGES


@<TRIPOS>ATOM
      1 C1         26.5038   23.6338   59.4992 C.3       1             0.0300
      2 O1         25.4543   22.6686   59.4049 O.3       1            -0.4024
      3 C2         24.6986   22.5123   60.6076 C.3       1             0.0276
      4 C3         23.6087   21.4604   60.3921 C.3       1            -0.0128
      5 N1         24.2297   20.1781   60.0339 N.4       1            -0.3794
      6 H1         24.7630   20.2896   59.1846 H         1             0.4343
      7 C4         23.1829   19.1709   59.8241 C.3       1            -0.0051
      8 C5         22.3213   19.0551   61.0833 C.3       1            -0.1422
      9 C6         23.2044   18.6377   62.2626 C.3       1            -0.1129
     10 C7         22.3649   18.5970   63.5412 C.3       1             0.1221
     11 N2         21.6044   17.3457   63.5865 N.am      1            -0.7157
     12 C8         22.2514   16.1634   63.5840 C.2       1             0.5968
     13 O2         23.4661   16.1353   63.5443 O.2       1            -0.5379
     14 C9         21.4843   14.9015   63.6298 C.ar      1            -0.0729
     15 C10        22.1552   13.6675   63.6331 C.ar      1             0.4184
     16 N3         23.5368   13.6276   63.5942 N.pl3     1            -0.8126
     17 N4         21.4558   12.5394   63.6743 N.ar      1            -0.5067
     18 C11        20.1365   12.5819   63.7120 C.ar      1             0.1530
     19 C12        19.4742   13.8012   63.7081 C.ar      1            -0.0234
     20 N5         20.1554   14.9285   63.6734 N.ar      1            -0.3756
     21 C13        24.3364   19.6561   62.4256 C.3       1            -0.1488
     22 C14        25.1219   19.7487   61.1173 C.3       1            -0.0111
     23 H2         27.0295   23.6932   58.5461 H         1             0.1009
     24 H3         26.0803   24.6085   59.7418 H         1             0.0556
     25 H4         27.2020   23.3361   60.2813 H         1             0.0517
     26 H5         25.3594   22.1911   61.4128 H         1             0.0742
     27 H6         24.2377   23.4636   60.8734 H         1             0.0967
     28 H7         23.0323   21.3412   61.3095 H         1             0.1462
     29 H8         22.9478   21.7815   59.5869 H         1             0.1399
     30 H9         22.5571   19.4678   58.9822 H         1             0.1344
     31 H10        23.6445   18.2068   59.6103 H         1             0.1326
     32 H11        21.8590   20.0186   61.2978 H         1             0.0930
     33 H12        21.5457   18.3054   60.9260 H         1             0.1178
     34 H13        23.6252   17.6506   62.0716 H         1             0.1009
     35 H14        23.0218   18.6545   64.4091 H         1             0.0766
     36 H15        21.6758   19.4415   63.5504 H         1             0.0823
     37 H16        20.6352   17.3682   63.6180 H         1             0.4121
     38 H17        24.0453   14.4531   63.5644 H         1             0.4274
     39 H18        23.9976   12.7741   63.5965 H         1             0.4068
     40 H19        19.5701   11.6630   63.7454 H         1             0.1806
     41 H20        18.3950   13.8265   63.7383 H         1             0.1771
     42 H21        23.9159   20.6320   62.6680 H         1             0.0921
     43 H22        25.0013   19.3360   63.2279 H         1             0.1142
     44 H23        25.5422   18.7724   60.8759 H         1             0.1337
     45 H24        25.9290   20.4726   61.2313 H         1             0.1303
@<TRIPOS>BOND
     1    1    2 1 
     2    1   23 1 
     3    1   24 1 
     4    1   25 1 
     5    2    3 1 
     6    3    4 1 
     7    3   26 1 
     8    3   27 1 
     9    4    5 1 
    10    4   28 1 
    11    4   29 1 
    12    5    6 1 
    13    5   22 1 
    14    5    7 1 
    15    7    8 1 
    16    7   30 1 
    17    7   31 1 
    18    8    9 1 
    19    8   32 1 
    20    8   33 1 
    21    9   10 1 
    22    9   21 1 
    23    9   34 1 
    24   10   11 1 
    25   10   35 1 
    26   10   36 1 
    27   11   12 am
    28   11   37 1 
    29   12   13 2 
    30   12   14 1 
    31   14   20 ar
    32   14   15 ar
    33   15   16 1 
    34   15   17 ar
    35   16   38 1 
    36   16   39 1 
    37   17   18 ar
    38   18   19 ar
    39   18   40 1 
    40   19   20 ar
    41   19   41 1 
    42   21   22 1 
    43   21   42 1 
    44   21   43 1 
    45   22   44 1 
    46   22   45 1 
##########                 Name:            E30407429
##########          Protonation:                  100
##########               SMILES:   c1ccc(cc1)c2cc(=O)[nH]c(n2)N3CCc4c3cccc4
##########            Long Name:   2-indolin-1-yl-4-phenyl-1H-pyrimidin-6-one
##########          FlexRecCode: 1
##########               Number:                  173
##########   Ligand Source File: /raidb/db2/rgc/leads-emolecules-300/leads-emolecules-2d-0000043.db2.gz
##########           GlobalRank: 1878
##########                 Rank:                    1
##########               Setnum:                   15
##########             Matchnum:                 2828
##########                Cloud:                    1
##########        Electrostatic:            -8.061779
##########        Van der Waals:           -33.860462
##########  Ligand Polar Desolv:             5.949154
########## Ligand Apolar Desolv:            -5.722761
##########      Internal Energy:             0.000000
##########      Receptor Energy: 0.0
########## Receptor Desolvation:             0.000000
########## Receptor Hydrophobic:             0.000000
##########         Total Energy: -41.7
##########        Ligand Charge:             0.000000
##########            Arbitrary:    +999.9990
##########     heavy atom count:   22
##########           pose count:    1
##########        Ligand Energy:             0.000000
# num electro vdwattr vdwrepu polsolv apolsol rdesolv rhydroe totalscore fullpol fullapo
#   1   -2.46   -3.73    1.36    4.46    0.31    0.00    0.00      -0.05    6.68    0.46
#   2    2.01   -2.13    0.35   -2.35   -0.41    0.00    0.00      -2.53   -3.77   -0.65
#   3   -1.87   -1.89    0.81    1.02    0.96    0.00    0.00      -0.98    1.80    1.69
#   4    3.22   -1.62    0.39   -0.84   -2.23    0.00    0.00      -1.08   -1.78   -4.73
#   5   -6.46   -1.85    0.38    1.33    0.66    0.00    0.00      -5.94    2.56    1.28
#   6    2.44   -1.83    0.31   -0.82   -0.43    0.00    0.00      -0.32   -1.40   -0.74
#   7   -1.46   -2.53    0.98    1.38   -0.27    0.00    0.00      -1.91    2.27   -0.44
#   8   -0.74   -2.21    0.58    0.22   -0.26    0.00    0.00      -2.40    0.35   -0.41
#   9   -0.61   -2.72    0.59    0.14   -0.28    0.00    0.00      -2.88    0.21   -0.44
#  10   -0.98   -3.16    1.07    0.00   -0.31    0.00    0.00      -3.38    0.00   -0.47
#  11   -1.28   -2.55    0.72   -0.06   -0.30    0.00    0.00      -3.47   -0.09   -0.47
#  12   -1.95   -2.79    0.93   -0.01   -0.28    0.00    0.00      -4.11   -0.01   -0.47
#  13   -1.11   -2.63    0.75    0.11   -0.27    0.00    0.00      -3.16    0.19   -0.46
#  14   -0.54   -1.45    0.26    0.06    0.57    0.00    0.00      -1.10    0.13    1.33
#  15   -0.14   -1.01    0.14    0.14   -0.20    0.00    0.00      -1.07    0.34   -0.47
#  16    0.59   -0.75    0.05   -0.15   -0.12    0.00    0.00      -0.37   -0.39   -0.30
#  17    1.44   -1.10    0.08   -0.08   -0.19    0.00    0.00       0.14   -0.19   -0.44
#  18   -0.61   -1.57    0.40   -0.05   -0.30    0.00    0.00      -2.14   -0.12   -0.70
#  19    0.61   -2.53    1.17    0.15   -0.22    0.00    0.00      -0.83    0.30   -0.44
#  20    1.44   -2.66    0.83   -0.01   -0.27    0.00    0.00      -0.68   -0.02   -0.47
#  21    3.04   -2.47    0.92   -0.13   -0.26    0.00    0.00       1.10   -0.23   -0.47
#  22    1.54   -1.38    0.14   -0.09   -0.21    0.00    0.00       0.00   -0.19   -0.47
#  23    0.20   -0.03    0.00    0.04    0.20    0.00    0.00       0.42    0.11    0.52
#  24    0.23   -0.98    1.12   -0.48   -0.12    0.00    0.00      -0.22   -0.87   -0.22
#  25    0.41   -0.69    0.19   -0.11   -0.13    0.00    0.00      -0.33   -0.19   -0.22
#  26    0.36   -0.92    0.42    0.24   -0.17    0.00    0.00      -0.07    0.40   -0.28
#  27    1.55   -0.43    0.06    0.33   -0.15    0.00    0.00       1.36    0.61   -0.28
#  28    1.35   -0.81    0.69    0.24   -0.15    0.00    0.00       1.33    0.45   -0.28
#  29    1.85   -0.62    0.19   -0.16   -0.10    0.00    0.00       1.15   -0.29   -0.19
#  30    0.12   -0.63    0.26    0.30   -0.12    0.00    0.00      -0.06    0.71   -0.28
#  31   -0.18   -0.25    0.03    0.19   -0.07    0.00    0.00      -0.28    0.76   -0.28
#  32   -0.65   -0.38    0.06    0.30   -0.10    0.00    0.00      -0.78    0.85   -0.28
#  33   -0.84   -0.15    0.01    0.12   -0.04    0.00    0.00      -0.90    0.86   -0.28
#  34    0.20   -0.71    0.52   -0.20   -0.07    0.00    0.00      -0.26   -0.42   -0.15
#  35   -2.06   -0.83    0.44    0.19   -0.16    0.00    0.00      -2.42    0.32   -0.28
#  36   -3.81   -1.42    4.57    0.29   -0.13    0.00    0.00      -0.49    0.63   -0.28
#  37   -2.90   -0.25    0.03    0.23   -0.08    0.00    0.00      -2.99    0.79   -0.28
@<TRIPOS>MOLECULE
E30407429
   37    40     0     0     0
SMALL
USER_CHARGES


@<TRIPOS>ATOM
      1 O1         20.9510   12.0499   63.6553 O.2       1            -0.5368
      2 C1         20.5423   13.1977   63.7261 C.2       1             0.5454
      3 N1         21.2997   14.2245   63.2865 N.am      1            -0.6481
      4 C2         20.8352   15.5013   63.3696 C.2       1             0.6463
      5 N2         19.6497   15.7685   63.8743 N.2       1            -0.5749
      6 C3         18.8518   14.7919   64.3272 C.2       1             0.2668
      7 C4         19.2743   13.4724   64.2605 C.2       1            -0.3324
      8 C5         17.5212   15.1194   64.8909 C.ar      1            -0.0630
      9 C6         17.2189   14.7865   66.2109 C.ar      1            -0.0858
     10 C7         15.9783   15.0945   66.7304 C.ar      1            -0.1253
     11 C8         15.0350   15.7311   65.9448 C.ar      1            -0.0986
     12 C9         15.3289   16.0643   64.6340 C.ar      1            -0.1287
     13 C10        16.5682   15.7669   64.1052 C.ar      1            -0.0725
     14 N3         21.6197   16.5313   62.9181 N.pl3     1            -0.5289
     15 C11        22.9534   16.8578   63.4299 C.3       1             0.0969
     16 C12        23.4119   18.0764   62.6122 C.3       1            -0.0822
     17 C13        22.2637   18.3552   61.6685 C.ar      1            -0.1344
     18 C14        21.2669   17.4195   61.8983 C.ar      1             0.1533
     19 C15        20.0988   17.4725   61.1357 C.ar      1            -0.1230
     20 C16        19.9447   18.4406   60.1662 C.ar      1            -0.0948
     21 C17        20.9467   19.3666   59.9419 C.ar      1            -0.1340
     22 C18        22.1028   19.3262   60.6994 C.ar      1            -0.0788
     23 H1         22.1772   14.0522   62.9108 H         1             0.4125
     24 H2         18.6417   12.6729   64.6165 H         1             0.1578
     25 H3         17.9543   14.2883   66.8253 H         1             0.1313
     26 H4         15.7430   14.8372   67.7527 H         1             0.1293
     27 H5         14.0652   15.9698   66.3558 H         1             0.1263
     28 H6         14.5882   16.5611   64.0249 H         1             0.1282
     29 H7         16.7982   16.0313   63.0836 H         1             0.1343
     30 H8         22.9005   17.1112   64.4887 H         1             0.0906
     31 H9         23.6337   16.0205   63.2743 H         1             0.0892
     32 H10        23.5824   18.9312   63.2666 H         1             0.0980
     33 H11        24.3159   17.8395   62.0512 H         1             0.0979
     34 H12        19.3125   16.7520   61.3058 H         1             0.1511
     35 H13        19.0386   18.4755   59.5797 H         1             0.1304
     36 H14        20.8237   20.1237   59.1815 H         1             0.1288
     37 H15        22.8868   20.0481   60.5247 H         1             0.1278
@<TRIPOS>BOND
     1    1    2 2 
     2    2    7 1 
     3    2    3 am
     4    3    4 1 
     5    3   23 1 
     6    4    5 2 
     7    4   14 1 
     8    5    6 1 
     9    6    7 2 
    10    6    8 1 
    11    7   24 1 
    12    8   13 ar
    13    8    9 ar
    14    9   10 ar
    15    9   25 1 
    16   10   11 ar
    17   10   26 1 
    18   11   12 ar
    19   11   27 1 
    20   12   13 ar
    21   12   28 1 
    22   13   29 1 
    23   14   18 1 
    24   14   15 1 
    25   15   16 1 
    26   15   30 1 
    27   15   31 1 
    28   16   17 1 
    29   16   32 1 
    30   16   33 1 
    31   17   22 ar
    32   17   18 ar
    33   18   19 ar
    34   19   20 ar
    35   19   34 1 
    36   20   21 ar
    37   20   35 1 
    38   21   22 ar
    39   21   36 1 
    40   22   37 1 
##########                 Name:             E1828541
##########          Protonation:                  100
##########               SMILES:   c1ccc(cc1)c2cc(=O)[nH]c(n2)N3CCc4c3cccc4
##########            Long Name:   2-indolin-1-yl-4-phenyl-1H-pyrimidin-6-one
##########          FlexRecCode: 1
##########               Number:                  400
##########   Ligand Source File: /raidb/db2/rgc/leads-emolecules-300/leads-emolecules-3-al-0000003.db2.gz
##########           GlobalRank: 1878
##########                 Rank:                    1
##########               Setnum:                   15
##########             Matchnum:                 2828
##########                Cloud:                    1
##########        Electrostatic:            -8.061780
##########        Van der Waals:           -33.860470
##########  Ligand Polar Desolv:             5.949154
########## Ligand Apolar Desolv:            -5.722761
##########      Internal Energy:             0.000000
##########      Receptor Energy: 0.0
########## Receptor Desolvation:             0.000000
########## Receptor Hydrophobic:             0.000000
##########         Total Energy: -41.7
##########        Ligand Charge:             0.000000
##########            Arbitrary:    +999.9990
##########     heavy atom count:   22
##########           pose count:    1
##########        Ligand Energy:             0.000000
# num electro vdwattr vdwrepu polsolv apolsol rdesolv rhydroe totalscore fullpol fullapo
#   1   -2.46   -3.73    1.36    4.46    0.31    0.00    0.00      -0.05    6.68    0.46
#   2    2.01   -2.13    0.35   -2.35   -0.41    0.00    0.00      -2.53   -3.77   -0.65
#   3   -1.87   -1.89    0.81    1.02    0.96    0.00    0.00      -0.98    1.80    1.69
#   4    3.22   -1.62    0.39   -0.84   -2.23    0.00    0.00      -1.08   -1.78   -4.73
#   5   -6.46   -1.85    0.38    1.33    0.66    0.00    0.00      -5.94    2.56    1.28
#   6    2.44   -1.83    0.31   -0.82   -0.43    0.00    0.00      -0.32   -1.40   -0.74
#   7   -1.46   -2.53    0.98    1.38   -0.27    0.00    0.00      -1.91    2.27   -0.44
#   8   -0.74   -2.21    0.58    0.22   -0.26    0.00    0.00      -2.40    0.35   -0.41
#   9   -0.61   -2.72    0.59    0.14   -0.28    0.00    0.00      -2.88    0.21   -0.44
#  10   -0.98   -3.16    1.07    0.00   -0.31    0.00    0.00      -3.38    0.00   -0.47
#  11   -1.28   -2.55    0.72   -0.06   -0.30    0.00    0.00      -3.47   -0.09   -0.47
#  12   -1.95   -2.79    0.93   -0.01   -0.28    0.00    0.00      -4.11   -0.01   -0.47
#  13   -1.11   -2.63    0.75    0.11   -0.27    0.00    0.00      -3.16    0.19   -0.46
#  14   -0.54   -1.45    0.26    0.06    0.57    0.00    0.00      -1.10    0.13    1.33
#  15   -0.14   -1.01    0.14    0.14   -0.20    0.00    0.00      -1.07    0.34   -0.47
#  16    0.59   -0.75    0.05   -0.15   -0.12    0.00    0.00      -0.37   -0.39   -0.30
#  17    1.44   -1.10    0.08   -0.08   -0.19    0.00    0.00       0.14   -0.19   -0.44
#  18   -0.61   -1.57    0.40   -0.05   -0.30    0.00    0.00      -2.14   -0.12   -0.70
#  19    0.61   -2.53    1.17    0.15   -0.22    0.00    0.00      -0.83    0.30   -0.44
#  20    1.44   -2.66    0.83   -0.01   -0.27    0.00    0.00      -0.68   -0.02   -0.47
#  21    3.04   -2.47    0.92   -0.13   -0.26    0.00    0.00       1.10   -0.23   -0.47
#  22    1.54   -1.38    0.14   -0.09   -0.21    0.00    0.00       0.00   -0.19   -0.47
#  23    0.20   -0.03    0.00    0.04    0.20    0.00    0.00       0.42    0.11    0.52
#  24    0.23   -0.98    1.12   -0.48   -0.12    0.00    0.00      -0.22   -0.87   -0.22
#  25    0.41   -0.69    0.19   -0.11   -0.13    0.00    0.00      -0.33   -0.19   -0.22
#  26    0.36   -0.92    0.42    0.24   -0.17    0.00    0.00      -0.07    0.40   -0.28
#  27    1.55   -0.43    0.06    0.33   -0.15    0.00    0.00       1.36    0.61   -0.28
#  28    1.35   -0.81    0.69    0.24   -0.15    0.00    0.00       1.33    0.45   -0.28
#  29    1.85   -0.62    0.19   -0.16   -0.10    0.00    0.00       1.15   -0.29   -0.19
#  30    0.12   -0.63    0.26    0.30   -0.12    0.00    0.00      -0.06    0.71   -0.28
#  31   -0.18   -0.25    0.03    0.19   -0.07    0.00    0.00      -0.28    0.76   -0.28
#  32   -0.65   -0.38    0.06    0.30   -0.10    0.00    0.00      -0.78    0.85   -0.28
#  33   -0.84   -0.15    0.01    0.12   -0.04    0.00    0.00      -0.90    0.86   -0.28
#  34    0.20   -0.71    0.52   -0.20   -0.07    0.00    0.00      -0.26   -0.42   -0.15
#  35   -2.06   -0.83    0.44    0.19   -0.16    0.00    0.00      -2.42    0.32   -0.28
#  36   -3.81   -1.42    4.57    0.29   -0.13    0.00    0.00      -0.49    0.63   -0.28
#  37   -2.90   -0.25    0.03    0.23   -0.08    0.00    0.00      -2.99    0.79   -0.28
@<TRIPOS>MOLECULE
E1828541
   37    40     0     0     0
SMALL
USER_CHARGES


@<TRIPOS>ATOM
      1 O1         20.9510   12.0499   63.6553 O.2       1            -0.5368
      2 C1         20.5423   13.1977   63.7261 C.2       1             0.5454
      3 N1         21.2997   14.2245   63.2865 N.am      1            -0.6481
      4 C2         20.8352   15.5013   63.3696 C.2       1             0.6463
      5 N2         19.6497   15.7685   63.8743 N.2       1            -0.5749
      6 C3         18.8518   14.7919   64.3272 C.2       1             0.2668
      7 C4         19.2743   13.4724   64.2605 C.2       1            -0.3324
      8 C5         17.5212   15.1194   64.8909 C.ar      1            -0.0630
      9 C6         17.2189   14.7865   66.2109 C.ar      1            -0.0858
     10 C7         15.9783   15.0945   66.7304 C.ar      1            -0.1253
     11 C8         15.0350   15.7311   65.9448 C.ar      1            -0.0986
     12 C9         15.3289   16.0643   64.6340 C.ar      1            -0.1287
     13 C10        16.5682   15.7669   64.1052 C.ar      1            -0.0725
     14 N3         21.6197   16.5313   62.9181 N.pl3     1            -0.5289
     15 C11        22.9534   16.8578   63.4299 C.3       1             0.0969
     16 C12        23.4119   18.0764   62.6122 C.3       1            -0.0822
     17 C13        22.2637   18.3552   61.6685 C.ar      1            -0.1344
     18 C14        21.2669   17.4195   61.8983 C.ar      1             0.1533
     19 C15        20.0988   17.4725   61.1357 C.ar      1            -0.1230
     20 C16        19.9447   18.4406   60.1662 C.ar      1            -0.0948
     21 C17        20.9467   19.3666   59.9419 C.ar      1            -0.1340
     22 C18        22.1028   19.3262   60.6994 C.ar      1            -0.0788
     23 H1         22.1772   14.0522   62.9108 H         1             0.4125
     24 H2         18.6417   12.6729   64.6165 H         1             0.1578
     25 H3         17.9543   14.2883   66.8253 H         1             0.1313
     26 H4         15.7430   14.8372   67.7527 H         1             0.1293
     27 H5         14.0652   15.9698   66.3558 H         1             0.1263
     28 H6         14.5882   16.5611   64.0249 H         1             0.1282
     29 H7         16.7982   16.0313   63.0836 H         1             0.1343
     30 H8         22.9005   17.1112   64.4887 H         1             0.0906
     31 H9         23.6337   16.0205   63.2743 H         1             0.0892
     32 H10        23.5824   18.9312   63.2666 H         1             0.0980
     33 H11        24.3159   17.8395   62.0512 H         1             0.0979
     34 H12        19.3125   16.7520   61.3058 H         1             0.1511
     35 H13        19.0386   18.4755   59.5797 H         1             0.1304
     36 H14        20.8237   20.1237   59.1815 H         1             0.1288
     37 H15        22.8868   20.0481   60.5247 H         1             0.1278
@<TRIPOS>BOND
     1    1    2 2 
     2    2    7 1 
     3    2    3 am
     4    3    4 1 
     5    3   23 1 
     6    4    5 2 
     7    4   14 1 
     8    5    6 1 
     9    6    7 2 
    10    6    8 1 
    11    7   24 1 
    12    8   13 ar
    13    8    9 ar
    14    9   10 ar
    15    9   25 1 
    16   10   11 ar
    17   10   26 1 
    18   11   12 ar
    19   11   27 1 
    20   12   13 ar
    21   12   28 1 
    22   13   29 1 
    23   14   18 1 
    24   14   15 1 
    25   15   16 1 
    26   15   30 1 
    27   15   31 1 
    28   16   17 1 
    29   16   32 1 
    30   16   33 1 
    31   17   22 ar
    32   17   18 ar
    33   18   19 ar
    34   19   20 ar
    35   19   34 1 
    36   20   21 ar
    37   20   35 1 
    38   21   22 ar
    39   21   36 1 
    40   22   37 1 
##########                 Name:            E23837895
##########          Protonation:                   99
##########               SMILES:   C[C@H](SC)CC[NH+]1CC[C@@H](CC1)Cn2nnc(c2)CO
##########            Long Name:   (3S)-3-methylsulfanylbutyl]piperidin-1-ium-4-yl]methyl]triazol-4-yl]methanol
##########          FlexRecCode: 1
##########               Number:                  674
##########   Ligand Source File: /raidb/db2/rgc/leads-emolecules-300/leads-emolecules-lt300-2j-0000056.db2.gz
##########           GlobalRank: 1913
##########                 Rank:                    1
##########               Setnum:                  249
##########             Matchnum:                  371
##########                Cloud:                    1
##########        Electrostatic:           -27.471727
##########        Van der Waals:           -22.878918
##########  Ligand Polar Desolv:             9.286044
########## Ligand Apolar Desolv:            -0.591230
##########      Internal Energy:             0.000000
##########      Receptor Energy: 0.0
########## Receptor Desolvation:             0.000000
########## Receptor Hydrophobic:             0.000000
##########         Total Energy: -41.66
##########        Ligand Charge:             1.000000
##########            Arbitrary:    +999.9990
##########     heavy atom count:   20
##########           pose count:    1
##########        Ligand Energy:             0.000000
# num electro vdwattr vdwrepu polsolv apolsol rdesolv rhydroe totalscore fullpol fullapo
#   1   -0.15   -0.68    0.12   -0.49    0.01    0.00    0.00      -1.18   -1.69    0.03
#   2   -0.75   -1.53    0.34   -1.51   -0.21    0.00    0.00      -3.66   -5.26   -0.74
#   3   -0.11   -0.78    0.16   -0.18   -0.04    0.00    0.00      -0.95   -0.66   -0.13
#   4    0.39   -0.68    0.08   -0.90   -0.06    0.00    0.00      -1.16   -2.91   -0.18
#   5    0.94   -0.49    0.04   -0.83   -0.05    0.00    0.00      -0.39   -3.33   -0.19
#   6    0.42   -1.02    0.38   -0.12   -0.09    0.00    0.00      -0.42   -0.35   -0.27
#   7    8.56   -1.36    0.69   -3.69    0.14    0.00    0.00       4.35  -11.08    0.43
#   8  -13.44   -0.09    0.02    4.67    0.16    0.00    0.00      -8.68   16.08    0.56
#   9    0.24   -1.11    0.24   -0.05   -0.16    0.00    0.00      -0.85   -0.13   -0.39
#  10    2.03   -0.81    0.07   -1.67   -0.09    0.00    0.00      -0.46   -3.85   -0.21
#  11    1.07   -0.63    0.03   -0.86   -0.06    0.00    0.00      -0.46   -2.33   -0.16
#  12   -0.42   -1.32    0.24    0.68   -0.19    0.00    0.00      -1.02    1.54   -0.44
#  13   -0.29   -1.78    0.38   -1.42    0.40    0.00    0.00      -2.71   -3.19    0.90
#  14   -0.03   -1.67    0.36   -0.03   -0.42    0.00    0.00      -1.79   -0.06   -0.94
#  15   -0.08   -1.65    0.38   -0.33   -0.41    0.00    0.00      -2.10   -0.64   -0.79
#  16    0.59   -1.31    0.22    0.80   -0.09    0.00    0.00       0.21    1.31   -0.15
#  17   -2.85   -3.11    1.47   -3.49    1.04    0.00    0.00      -6.94   -5.64    1.68
#  18   -2.09   -1.77    0.37   -0.76    0.58    0.00    0.00      -3.67   -1.57    1.20
#  19   -0.58   -2.64    1.55   -0.44    0.23    0.00    0.00      -1.89   -0.95    0.49
#  20    1.39   -0.67    0.09   -1.02   -0.06    0.00    0.00      -0.27   -3.62   -0.21
#  21    0.04   -0.56    0.07    0.14   -0.11    0.00    0.00      -0.42    0.52   -0.42
#  22    0.23   -0.54    0.56    0.23   -0.07    0.00    0.00       0.41    0.80   -0.25
#  23   -0.01   -0.10    0.00    0.13   -0.03    0.00    0.00       0.00    1.33   -0.28
#  24    0.06   -0.21    0.03    0.23   -0.07    0.00    0.00       0.04    0.90   -0.28
#  25    0.20   -0.75    0.69    0.81   -0.08    0.00    0.00       0.87    2.68   -0.28
#  26   -0.81   -0.28    0.06    0.44   -0.06    0.00    0.00      -0.65    1.89   -0.28
#  27    0.14   -0.24    0.04    0.05   -0.06    0.00    0.00      -0.07    0.21   -0.24
#  28   -0.26   -0.13    0.01    0.11   -0.04    0.00    0.00      -0.31    0.81   -0.28
#  29   -0.77   -0.12    0.00    0.60   -0.03    0.00    0.00      -0.31    4.79   -0.22
#  30   -0.48   -0.10    0.00    0.26   -0.03    0.00    0.00      -0.34    2.73   -0.28
#  31   -2.22   -0.62    0.74    0.92   -0.06    0.00    0.00      -1.24    3.44   -0.24
#  32   -3.18   -0.46    0.23    1.46   -0.05    0.00    0.00      -1.99    4.73   -0.15
#  33   -3.95   -0.61    0.44    2.34   -0.08    0.00    0.00      -1.86    6.00   -0.21
#  34   -3.44   -0.42    0.10    1.71   -0.10    0.00    0.00      -2.15    4.63   -0.28
#  35   -1.47   -0.53    0.29    1.33   -0.07    0.00    0.00      -0.45    3.96   -0.22
#  36   -1.36   -0.25    0.03    0.80   -0.08    0.00    0.00      -0.85    2.98   -0.28
#  37   -1.01   -0.17    0.01    0.22   -0.05    0.00    0.00      -0.99    1.35   -0.28
#  38   -0.38   -0.73    0.45    1.55   -0.11    0.00    0.00       0.78    4.02   -0.28
#  39   -0.35   -0.64    0.18    1.04   -0.13    0.00    0.00       0.10    2.17   -0.28
#  40   -0.05   -0.30    0.05    1.01   -0.08    0.00    0.00       0.62    3.41   -0.28
#  41    0.27   -0.37    0.04    0.20   -0.14    0.00    0.00       0.00    0.39   -0.28
#  42    0.19   -0.57    0.37    0.33   -0.15    0.00    0.00       0.16    0.61   -0.28
#  43    1.31   -0.05    0.00    2.98    0.65    0.00    0.00       4.88    5.67    1.24
#  44   -0.69   -0.33    0.07    0.81   -0.05    0.00    0.00      -0.19    3.25   -0.21
#  45   -0.90   -0.27    0.12    0.06   -0.05    0.00    0.00      -1.03    0.36   -0.27
#  46   -2.09   -0.22    0.04    0.75   -0.05    0.00    0.00      -1.58    4.00   -0.28
#  47   -1.34   -0.11    0.01    0.43   -0.03    0.00    0.00      -1.04    4.30   -0.28
@<TRIPOS>MOLECULE
E23837895
   47    48     0     0     0
SMALL
USER_CHARGES


@<TRIPOS>ATOM
      1 C1         27.7079   24.3713   60.9511 C.3       1            -0.1171
      2 S1         26.9162   23.9398   62.5252 S.3       1            -0.2632
      3 C2         25.2440   23.4233   62.0483 C.3       1            -0.0579
      4 C3         24.5338   24.5811   61.3442 C.3       1            -0.1545
      5 C4         25.3312   22.2260   61.0997 C.3       1            -0.1260
      6 C5         23.9924   21.4857   61.0888 C.3       1            -0.0245
      7 N1         24.0759   20.3361   60.1779 N.4       1            -0.3804
      8 H1         24.2889   20.6608   59.2467 H         1             0.4289
      9 C6         22.7896   19.6289   60.1657 C.3       1            -0.0100
     10 C7         22.4238   19.2032   61.5892 C.3       1            -0.1413
     11 C8         23.5132   18.2752   62.1345 C.3       1            -0.1153
     12 C9         23.1942   17.9091   63.5855 C.3       1             0.1220
     13 N2         22.1872   16.8454   63.6106 N.pl3     1            -0.3024
     14 C10        22.4384   15.5158   63.6147 C.2       1            -0.0227
     15 C11        21.2312   14.9041   63.6404 C.2       1            -0.0203
     16 C12        20.9728   13.4195   63.6552 C.3       1             0.1613
     17 O1         21.8465   12.7932   64.5966 O.3       1            -0.5750
     18 N3         20.3127   15.8766   63.6507 N.2       1            -0.2507
     19 N4         20.9115   17.0150   63.6381 N.2       1            -0.0825
     20 C13        24.8624   18.9968   62.0733 C.3       1            -0.1464
     21 C14        25.1367   19.4294   60.6328 C.3       1            -0.0029
     22 H2         28.7310   24.6984   61.1366 H         1             0.0845
     23 H3         27.7182   23.4984   60.2983 H         1             0.0812
     24 H4         27.1503   25.1762   60.4725 H         1             0.1096
     25 H5         24.6830   23.1409   62.9393 H         1             0.0956
     26 H6         23.5291   24.2707   61.0577 H         1             0.0705
     27 H7         24.4717   25.4341   62.0201 H         1             0.0679
     28 H8         25.0948   24.8636   60.4534 H         1             0.0748
     29 H9         25.5612   22.5757   60.0934 H         1             0.1006
     30 H10        26.1170   21.5508   61.4383 H         1             0.0979
     31 H11        23.7623   21.1357   62.0952 H         1             0.1407
     32 H12        23.2065   22.1609   60.7504 H         1             0.1344
     33 H13        22.0161   20.2896   59.7743 H         1             0.1356
     34 H14        22.8671   18.7459   59.5314 H         1             0.1347
     35 H15        22.3458   20.0856   62.2244 H         1             0.0936
     36 H16        21.4694   18.6769   61.5777 H         1             0.1196
     37 H17        23.5556   17.3687   61.5307 H         1             0.1117
     38 H18        24.1013   17.5624   64.0806 H         1             0.1108
     39 H19        22.8091   18.7864   64.1053 H         1             0.1105
     40 H20        23.4071   15.0386   63.6000 H         1             0.1960
     41 H21        19.9374   13.2338   63.9410 H         1             0.0730
     42 H22        21.1547   13.0091   62.6619 H         1             0.0717
     43 H23        22.7860   12.9173   64.4044 H         1             0.3968
     44 H24        24.8351   19.8750   62.7185 H         1             0.0929
     45 H25        25.6511   18.3230   62.4079 H         1             0.1083
     46 H26        25.1640   18.5506   59.9885 H         1             0.1337
     47 H27        26.0972   19.9426   60.5867 H         1             0.1344
@<TRIPOS>BOND
     1    1    2 1 
     2    1   22 1 
     3    1   23 1 
     4    1   24 1 
     5    2    3 1 
     6    3    4 1 
     7    3    5 1 
     8    3   25 1 
     9    4   26 1 
    10    4   27 1 
    11    4   28 1 
    12    5    6 1 
    13    5   29 1 
    14    5   30 1 
    15    6    7 1 
    16    6   31 1 
    17    6   32 1 
    18    7    8 1 
    19    7   21 1 
    20    7    9 1 
    21    9   10 1 
    22    9   33 1 
    23    9   34 1 
    24   10   11 1 
    25   10   35 1 
    26   10   36 1 
    27   11   12 1 
    28   11   20 1 
    29   11   37 1 
    30   12   13 1 
    31   12   38 1 
    32   12   39 1 
    33   13   19 1 
    34   13   14 1 
    35   14   15 2 
    36   14   40 1 
    37   15   16 1 
    38   15   18 1 
    39   16   17 1 
    40   16   41 1 
    41   16   42 1 
    42   17   43 1 
    43   18   19 2 
    44   20   21 1 
    45   20   44 1 
    46   20   45 1 
    47   21   46 1 
    48   21   47 1 
##########                 Name:             E8859359
##########          Protonation:                  100
##########               SMILES:   Cc1ccccc1OCc2nc3c4ccccc4ncn3n2
##########            Long Name:   2-[(2-methylphenoxy)methyl]-[1,2,4]triazolo[1,5-c]quinazoline
##########          FlexRecCode: 1
##########               Number:                  846
##########   Ligand Source File: /raidb/db2/rgc/leads-emolecules-300/leads-emolecules-3-da-0000006.db2.gz
##########           GlobalRank: 1939
##########                 Rank:                    1
##########               Setnum:                  119
##########             Matchnum:                 6975
##########                Cloud:                    1
##########        Electrostatic:           -10.081727
##########        Van der Waals:           -31.676680
##########  Ligand Polar Desolv:             5.539257
########## Ligand Apolar Desolv:            -5.410568
##########      Internal Energy:             0.000000
##########      Receptor Energy: 0.0
########## Receptor Desolvation:             0.000000
########## Receptor Hydrophobic:             0.000000
##########         Total Energy: -41.63
##########        Ligand Charge:             0.000000
##########            Arbitrary:    +999.9990
##########     heavy atom count:   22
##########           pose count:    1
##########        Ligand Energy:             0.000000
# num electro vdwattr vdwrepu polsolv apolsol rdesolv rhydroe totalscore fullpol fullapo
#   1   -1.14   -1.81    0.72    0.20   -0.12    0.00    0.00      -2.15    0.33   -0.20
#   2   -1.34   -2.65    1.37    0.35   -0.26    0.00    0.00      -2.52    0.57   -0.41
#   3   -0.54   -3.60    2.30    0.09   -0.28    0.00    0.00      -2.03    0.15   -0.45
#   4   -0.01   -4.65    2.42    0.04   -0.32    0.00    0.00      -2.52    0.06   -0.47
#   5   -0.38   -3.72    1.14    0.01   -0.32    0.00    0.00      -3.26    0.02   -0.47
#   6   -2.62   -2.62    0.62    0.21   -0.27    0.00    0.00      -4.68    0.32   -0.42
#   7    2.14   -2.63    0.88   -0.25   -0.20    0.00    0.00      -0.06   -0.39   -0.31
#   8   -7.19   -3.81    3.51    1.10    0.49    0.00    0.00      -5.90    1.82    0.81
#   9    2.12   -2.81    1.88   -0.28   -0.07    0.00    0.00       0.85   -0.46   -0.11
#  10    3.00   -2.68    1.07   -0.84   -1.23    0.00    0.00      -0.69   -1.47   -2.16
#  11   -2.21   -3.71    4.44    1.13    0.75    0.00    0.00       0.40    1.91    1.26
#  12   -1.79   -1.91    0.33    1.15    0.46    0.00    0.00      -1.76    1.91    0.77
#  13    1.18   -2.60    0.53   -0.52   -2.03    0.00    0.00      -3.45   -0.81   -3.14
#  14   -2.09   -3.02    0.81    0.80    1.27    0.00    0.00      -2.22    1.28    2.02
#  15    0.16   -2.10    0.58   -0.12   -0.38    0.00    0.00      -1.86   -0.22   -0.72
#  16    0.19   -2.45    1.02   -0.05   -0.23    0.00    0.00      -1.51   -0.10   -0.47
#  17    0.22   -1.51    0.27   -0.10   -0.19    0.00    0.00      -1.31   -0.24   -0.47
#  18    0.38   -1.23    0.16   -0.10   -0.17    0.00    0.00      -0.97   -0.28   -0.47
#  19    0.08   -1.41    0.40    0.04   -0.18    0.00    0.00      -1.08    0.09   -0.46
#  20   -0.13   -1.84    1.09    0.20   -0.19    0.00    0.00      -0.87    0.43   -0.41
#  21    1.75   -1.72    0.56   -0.99   -1.15    0.00    0.00      -1.56   -1.89   -2.19
#  22   -5.41   -2.05    0.53    1.97    1.06    0.00    0.00      -3.89    3.91    2.10
#  23    0.65   -0.40    0.12   -0.09   -0.12    0.00    0.00       0.14   -0.21   -0.28
#  24    0.70   -0.78    0.53   -0.05   -0.15    0.00    0.00       0.26   -0.09   -0.28
#  25    0.73   -0.77    0.43   -0.12   -0.14    0.00    0.00       0.13   -0.23   -0.26
#  26    0.81   -0.79    0.55    0.07   -0.15    0.00    0.00       0.48    0.12   -0.28
#  27   -0.92   -1.64    1.69    0.24   -0.19    0.00    0.00      -0.82    0.35   -0.28
#  28    0.30   -1.14    0.54    0.27   -0.18    0.00    0.00      -0.20    0.42   -0.28
#  29    1.86   -0.56    0.17    0.08   -0.10    0.00    0.00       1.46    0.17   -0.21
#  30    1.11   -1.29    1.85   -0.06   -0.16    0.00    0.00       1.45   -0.10   -0.26
#  31    0.88   -1.31    1.75   -0.02   -0.16    0.00    0.00       1.14   -0.04   -0.26
#  32   -0.32   -0.94    0.69    0.41   -0.18    0.00    0.00      -0.34    0.65   -0.28
#  33   -0.66   -0.85    0.94    0.22   -0.12    0.00    0.00      -0.48    0.51   -0.28
#  34   -0.42   -0.23    0.02    0.36   -0.07    0.00    0.00      -0.34    1.52   -0.28
#  35   -0.82   -0.19    0.02    0.21   -0.05    0.00    0.00      -0.83    1.17   -0.28
#  36   -0.35   -0.22    0.02   -0.04   -0.07    0.00    0.00      -0.65   -0.17   -0.28
@<TRIPOS>MOLECULE
E8859359
   36    39     0     0     0
SMALL
USER_CHARGES


@<TRIPOS>ATOM
      1 C1         13.8662   15.7882   64.4362 C.3       1            -0.1075
      2 C2         15.0000   15.4258   65.3605 C.ar      1            -0.1118
      3 C3         14.7817   14.5631   66.4174 C.ar      1            -0.0830
      4 C4         15.8213   14.2308   67.2659 C.ar      1            -0.1505
      5 C5         17.0820   14.7602   67.0591 C.ar      1            -0.0849
      6 C6         17.3054   15.6229   66.0037 C.ar      1            -0.2042
      7 C7         16.2650   15.9538   65.1474 C.ar      1             0.1282
      8 O1         16.4836   16.7978   64.1051 O.3       1            -0.3051
      9 C8         16.8770   16.2080   62.8643 C.3       1             0.1570
     10 C9         18.1687   15.4550   63.0534 C.2       1             0.2576
     11 N1         18.2652   14.1917   63.3883 N.2       1            -0.2776
     12 N2         19.6311   13.8867   63.4577 N.pl3     1            -0.3514
     13 C10        20.3311   12.7560   63.7522 C.2       1             0.3820
     14 N3         21.6282   12.7073   63.7545 N.2       1            -0.4712
     15 C11        22.3893   13.7896   63.4605 C.ar      1             0.1220
     16 C12        23.7851   13.7268   63.4653 C.ar      1            -0.0875
     17 C13        24.5144   14.8420   63.1624 C.ar      1            -0.0806
     18 C14        23.8889   16.0415   62.8493 C.ar      1            -0.1124
     19 C15        22.5244   16.1345   62.8366 C.ar      1            -0.0592
     20 C16        21.7563   15.0125   63.1406 C.ar      1            -0.0770
     21 C17        20.2905   15.0452   63.1443 C.2       1             0.3236
     22 N4         19.3853   15.9689   62.9006 N.2       1            -0.5041
     23 H1         12.9573   15.2809   64.7598 H         1             0.0686
     24 H2         13.7085   16.8663   64.4598 H         1             0.0666
     25 H3         14.1126   15.4791   63.4203 H         1             0.0686
     26 H4         13.7981   14.1482   66.5810 H         1             0.1303
     27 H5         15.6485   13.5568   68.0919 H         1             0.1253
     28 H6         17.8924   14.4994   67.7236 H         1             0.1264
     29 H7         18.2901   16.0360   65.8426 H         1             0.1290
     30 H8         16.1016   15.5204   62.5268 H         1             0.0998
     31 H9         17.0184   16.9905   62.1188 H         1             0.0959
     32 H10        19.7816   11.8586   63.9953 H         1             0.2151
     33 H11        24.2854   12.8009   63.7077 H         1             0.1468
     34 H12        25.5932   14.7897   63.1671 H         1             0.1408
     35 H13        24.4860   16.9100   62.6135 H         1             0.1399
     36 H14        22.0456   17.0714   62.5927 H         1             0.1442
@<TRIPOS>BOND
     1    1    2 1 
     2    1   23 1 
     3    1   24 1 
     4    1   25 1 
     5    2    7 ar
     6    2    3 ar
     7    3    4 ar
     8    3   26 1 
     9    4    5 ar
    10    4   27 1 
    11    5    6 ar
    12    5   28 1 
    13    6    7 ar
    14    6   29 1 
    15    7    8 1 
    16    8    9 1 
    17    9   10 1 
    18    9   30 1 
    19    9   31 1 
    20   10   22 1 
    21   10   11 2 
    22   11   12 1 
    23   12   21 1 
    24   12   13 1 
    25   13   14 2 
    26   13   32 1 
    27   14   15 1 
    28   15   20 ar
    29   15   16 ar
    30   16   17 ar
    31   16   33 1 
    32   17   18 ar
    33   17   34 1 
    34   18   19 ar
    35   18   35 1 
    36   19   20 ar
    37   19   36 1 
    38   20   21 1 
    39   21   22 2 
##########                 Name:             E1315890
##########          Protonation:                   96
##########               SMILES:   [H]/N=C(\Nc1ccc2ccccc2c1)/Nc3nc(cc(n3)C)C
##########            Long Name:   1-(4,6-dimethylpyrimidin-2-yl)-3-(2-naphthyl)guanidine
##########          FlexRecCode: 1
##########               Number:                  465
##########   Ligand Source File: /raidb/db2/rgc/leads-emolecules-300/leads-emolecules-2e-0000156.db2.gz
##########           GlobalRank: 2033
##########                 Rank:                    1
##########               Setnum:                   13
##########             Matchnum:                 1088
##########                Cloud:                    1
##########        Electrostatic:            -4.625638
##########        Van der Waals:           -35.329620
##########  Ligand Polar Desolv:             4.782741
########## Ligand Apolar Desolv:            -6.368010
##########      Internal Energy:             0.000000
##########      Receptor Energy: 0.0
########## Receptor Desolvation:             0.000000
########## Receptor Hydrophobic:             0.000000
##########         Total Energy: -41.54
##########        Ligand Charge:             0.000000
##########            Arbitrary:    +999.9990
##########     heavy atom count:   22
##########           pose count:    1
##########        Ligand Energy:             0.000000
# num electro vdwattr vdwrepu polsolv apolsol rdesolv rhydroe totalscore fullpol fullapo
#   1    0.48   -0.86    0.28    0.01   -0.06    0.00    0.00      -0.16    0.02   -0.21
#   2   -0.81   -1.51    0.37   -0.21   -0.26    0.00    0.00      -2.42   -0.60   -0.75
#   3    1.50   -1.48    0.31    0.11   -0.16    0.00    0.00       0.29    0.30   -0.44
#   4   -0.55   -1.47    0.18   -0.19   -0.32    0.00    0.00      -2.34   -0.44   -0.75
#   5    0.55   -1.52    0.43   -0.08   -0.10    0.00    0.00      -0.72   -0.18   -0.21
#   6   -0.93   -1.61    0.29    1.45    0.87    0.00    0.00       0.06    3.33    1.99
#   7    0.49   -1.71    0.39   -1.63   -2.17    0.00    0.00      -4.63   -3.58   -4.77
#   8   -1.80   -1.97    0.41    1.80    0.50    0.00    0.00      -1.04    3.29    0.92
#   9    3.01   -1.84    0.36   -1.67   -2.79    0.00    0.00      -2.94   -2.81   -4.69
#  10   -2.27   -2.86    1.26    2.78    0.74    0.00    0.00      -0.35    4.42    1.17
#  11   -5.92   -1.74    0.34    0.56    0.55    0.00    0.00      -6.22    1.06    1.04
#  12    1.85   -1.83    0.28   -0.15   -0.37    0.00    0.00      -0.23   -0.26   -0.64
#  13   -2.31   -2.68    0.89    0.19   -0.20    0.00    0.00      -4.10    0.33   -0.34
#  14   -0.91   -3.27    1.18    0.04   -0.27    0.00    0.00      -3.23    0.07   -0.46
#  15   -0.94   -2.79    1.41    0.10   -0.24    0.00    0.00      -2.46    0.17   -0.40
#  16   -1.13   -2.74    1.85    0.01   -0.28    0.00    0.00      -2.29    0.02   -0.46
#  17   -1.15   -2.56    0.81   -0.04   -0.31    0.00    0.00      -3.24   -0.06   -0.47
#  18   -0.53   -3.86    1.48   -0.03   -0.31    0.00    0.00      -3.25   -0.05   -0.47
#  19   -0.42   -3.61    1.14    0.05   -0.31    0.00    0.00      -3.15    0.07   -0.46
#  20   -0.23   -2.54    0.65    0.07   -0.26    0.00    0.00      -2.30    0.10   -0.40
#  21   -1.31   -2.24    0.41    0.11   -0.28    0.00    0.00      -3.31    0.17   -0.45
#  22    0.80   -1.63    0.33    1.55    0.61    0.00    0.00       1.65    3.68    1.45
#  23   -0.52   -0.28    0.17    0.01   -0.04    0.00    0.00      -0.67    0.06   -0.28
#  24   -0.25   -0.40    0.16    0.09   -0.07    0.00    0.00      -0.47    0.36   -0.28
#  25   -0.30   -0.13    0.00   -0.02   -0.04    0.00    0.00      -0.48   -0.14   -0.28
#  26   -1.16   -0.28    0.06    0.13   -0.06    0.00    0.00      -1.30    0.61   -0.28
#  27    0.03   -0.94    1.64    0.12   -0.12    0.00    0.00       0.74    0.30   -0.28
#  28   -0.44   -0.80    0.31    0.03   -0.14    0.00    0.00      -1.03    0.07   -0.28
#  29   -0.95   -0.27    0.03    0.16   -0.08    0.00    0.00      -1.12    0.55   -0.28
#  30    1.17   -0.04    0.00   -0.90    0.18    0.00    0.00       0.42   -1.82    0.37
#  31    0.90   -0.05    0.00   -0.67    0.30    0.00    0.00       0.49   -1.33    0.59
#  32    3.64   -0.03    0.00    0.11    0.20    0.00    0.00       3.92    0.33    0.59
#  33    1.41   -0.73    0.53   -0.15   -0.12    0.00    0.00       0.95   -0.31   -0.24
#  34    1.06   -1.14    0.97    0.16   -0.17    0.00    0.00       0.88    0.26   -0.28
#  35    1.29   -0.51    0.13    0.17   -0.13    0.00    0.00       0.94    0.35   -0.28
#  36    1.12   -0.45    0.09    0.22   -0.14    0.00    0.00       0.84    0.44   -0.28
#  37    0.20   -1.63    2.47    0.27   -0.18    0.00    0.00       1.13    0.42   -0.28
#  38   -0.17   -0.99    0.34    0.16   -0.18    0.00    0.00      -0.85    0.24   -0.28
#  39    0.89   -0.64    0.30    0.07   -0.15    0.00    0.00       0.47    0.13   -0.28
@<TRIPOS>MOLECULE
E1315890
   39    41     0     0     0
SMALL
USER_CHARGES


@<TRIPOS>ATOM
      1 C1         26.1882   16.1004   62.8398 C.3       1            -0.1035
      2 C2         24.7041   16.1914   63.0850 C.ar      1             0.2027
      3 C3         24.0507   17.4102   62.9893 C.ar      1            -0.2702
      4 C4         22.6849   17.4495   63.2226 C.ar      1             0.2072
      5 C5         21.9324   18.7519   63.1294 C.3       1            -0.1059
      6 N1         22.0501   16.3299   63.5277 N.ar      1            -0.5636
      7 C6         22.7045   15.1815   63.6111 C.ar      1             0.5592
      8 N2         22.0067   14.0262   63.9334 N.pl3     1            -0.6216
      9 C7         20.6487   14.0826   64.1625 C.2       1             0.6155
     10 N3         19.9934   12.9979   64.4651 N.2       1            -0.7174
     11 N4         19.9846   15.2849   64.0714 N.pl3     1            -0.7057
     12 C8         18.6071   15.3421   64.3037 C.ar      1             0.1538
     13 C9         17.7512   15.7874   63.2892 C.ar      1            -0.1613
     14 C10        16.4083   15.8536   63.4873 C.ar      1            -0.0656
     15 C11        15.8628   15.4710   64.7254 C.ar      1            -0.0703
     16 C12        14.4781   15.5285   64.9584 C.ar      1            -0.0969
     17 C13        13.9817   15.1507   66.1681 C.ar      1            -0.1221
     18 C14        14.8265   14.7059   67.1835 C.ar      1            -0.1052
     19 C15        16.1724   14.6371   66.9946 C.ar      1            -0.1139
     20 C16        16.7219   15.0186   65.7581 C.ar      1            -0.0233
     21 C17        18.1055   14.9546   65.5264 C.ar      1            -0.1387
     22 N5         24.0082   15.1084   63.3888 N.ar      1            -0.4840
     23 H1         26.5791   17.0905   62.6052 H         1             0.0840
     24 H2         26.6814   15.7175   63.7334 H         1             0.0784
     25 H3         26.3778   15.4275   62.0036 H         1             0.0845
     26 H4         24.5939   18.3094   62.7389 H         1             0.1446
     27 H5         20.8782   18.5785   63.3448 H         1             0.0856
     28 H6         22.3395   19.4592   63.8520 H         1             0.0816
     29 H7         22.0355   19.1599   62.1239 H         1             0.0824
     30 H8         22.4745   13.1789   63.9976 H         1             0.4287
     31 H9         19.0538   13.0488   64.7010 H         1             0.3377
     32 H10        20.4724   16.0925   63.8459 H         1             0.4204
     33 H11        18.1639   16.0827   62.3358 H         1             0.1295
     34 H12        15.7611   16.1999   62.6951 H         1             0.1353
     35 H13        13.8109   15.8714   64.1814 H         1             0.1289
     36 H14        12.9171   15.1965   66.3439 H         1             0.1247
     37 H15        14.4068   14.4119   68.1342 H         1             0.1248
     38 H16        16.8152   14.2911   67.7907 H         1             0.1278
     39 H17        18.7718   14.6080   66.3026 H         1             0.1319
@<TRIPOS>BOND
     1    1    2 1 
     2    1   23 1 
     3    1   24 1 
     4    1   25 1 
     5    2   22 ar
     6    2    3 ar
     7    3    4 ar
     8    3   26 1 
     9    4    5 1 
    10    4    6 ar
    11    5   27 1 
    12    5   28 1 
    13    5   29 1 
    14    6    7 ar
    15    7    8 1 
    16    7   22 ar
    17    8    9 1 
    18    8   30 1 
    19    9   10 2 
    20    9   11 1 
    21   10   31 1 
    22   11   12 1 
    23   11   32 1 
    24   12   21 ar
    25   12   13 ar
    26   13   14 ar
    27   13   33 1 
    28   14   15 ar
    29   14   34 1 
    30   15   20 ar
    31   15   16 ar
    32   16   17 ar
    33   16   35 1 
    34   17   18 ar
    35   17   36 1 
    36   18   19 ar
    37   18   37 1 
    38   19   20 ar
    39   19   38 1 
    40   20   21 ar
    41   21   39 1 
##########                 Name:             E9856492
##########          Protonation:                  100
##########               SMILES:   Cc1ccc(cc1)c2/c(=N/C(=O)c3ccc(cc3)C)/[nH]on2
##########            Long Name:   (NZ)-4-methyl-N-[4-(p-tolyl)-1,2,5-oxadiazol-3-ylidene]benzamide
##########          FlexRecCode: 1
##########               Number:                  237
##########   Ligand Source File: /raidb/db2/rgc/leads-emolecules-300/leads-emolecules-2f-0000205.db2.gz
##########           GlobalRank: 2033
##########                 Rank:                    1
##########               Setnum:                   46
##########             Matchnum:                 4510
##########                Cloud:                    1
##########        Electrostatic:            -5.761680
##########        Van der Waals:           -35.143833
##########  Ligand Polar Desolv:             3.565173
########## Ligand Apolar Desolv:            -4.196146
##########      Internal Energy:             0.000000
##########      Receptor Energy: 0.0
########## Receptor Desolvation:             0.000000
########## Receptor Hydrophobic:             0.000000
##########         Total Energy: -41.54
##########        Ligand Charge:             0.000000
##########            Arbitrary:    +999.9990
##########     heavy atom count:   22
##########           pose count:    1
##########        Ligand Energy:             0.000000
# num electro vdwattr vdwrepu polsolv apolsol rdesolv rhydroe totalscore fullpol fullapo
#   1   -1.06   -1.59    0.41   -0.25   -0.12    0.00    0.00      -2.62   -0.41   -0.20
#   2   -0.55   -2.70    1.86   -0.02   -0.26    0.00    0.00      -1.67   -0.03   -0.41
#   3   -1.34   -2.46    0.72    0.11   -0.30    0.00    0.00      -3.26    0.17   -0.45
#   4   -0.54   -2.85    0.83    0.21   -0.30    0.00    0.00      -2.64    0.32   -0.46
#   5   -1.66   -2.43    0.58    0.45   -0.27    0.00    0.00      -3.33    0.68   -0.41
#   6   -0.73   -2.83    1.09    0.02   -0.27    0.00    0.00      -2.72    0.04   -0.46
#   7   -1.51   -3.74    2.70   -0.09   -0.27    0.00    0.00      -2.90   -0.15   -0.45
#   8    6.02   -2.54    0.50   -1.88   -0.41    0.00    0.00       1.69   -2.99   -0.65
#   9   -4.17   -3.88    1.21    3.11    0.23    0.00    0.00      -3.50    4.64    0.35
#  10   -7.42   -2.40    0.79    1.29    1.30    0.00    0.00      -6.45    2.23    2.24
#  11    3.50   -1.86    0.35   -1.05   -1.23    0.00    0.00      -0.30   -1.82   -2.14
#  12   -1.89   -3.29    1.92    1.42    0.43    0.00    0.00      -1.41    2.36    0.72
#  13    0.08   -2.58    0.66   -0.08   -0.39    0.00    0.00      -2.32   -0.13   -0.60
#  14   -0.80   -2.22    0.76    0.66    0.73    0.00    0.00      -0.87    1.08    1.18
#  15    0.97   -1.62    0.32   -0.37   -0.46    0.00    0.00      -1.15   -0.63   -0.79
#  16   -0.25   -1.68    0.61    0.05   -0.18    0.00    0.00      -1.44    0.12   -0.41
#  17   -0.05   -2.34    1.78   -0.01   -0.20    0.00    0.00      -0.82   -0.02   -0.45
#  18    0.92   -1.59    0.37   -0.15   -0.20    0.00    0.00      -0.65   -0.32   -0.45
#  19    0.38   -1.13    0.09   -0.05   -0.18    0.00    0.00      -0.89   -0.12   -0.41
#  20    1.80   -0.75    0.07   -0.24   -0.08    0.00    0.00       0.79   -0.60   -0.20
#  21    0.39   -1.45    0.17   -0.10   -0.19    0.00    0.00      -1.18   -0.24   -0.45
#  22   -0.10   -1.76    0.43    0.00   -0.20    0.00    0.00      -1.64    0.00   -0.45
#  23    0.58   -0.37    0.06    0.17   -0.13    0.00    0.00       0.30    0.35   -0.28
#  24    0.54   -0.95    0.94    0.15   -0.15    0.00    0.00       0.54    0.28   -0.28
#  25    0.66   -0.46    0.13    0.19   -0.13    0.00    0.00       0.39    0.41   -0.28
#  26    1.13   -0.57    0.21    0.06   -0.15    0.00    0.00       0.68    0.12   -0.28
#  27    0.72   -0.81    0.33   -0.33   -0.15    0.00    0.00      -0.24   -0.57   -0.26
#  28    2.03   -0.49    0.09    0.09   -0.12    0.00    0.00       1.59    0.17   -0.24
#  29    1.09   -1.32    1.36    0.43   -0.16    0.00    0.00       1.41    0.74   -0.28
#  30    0.71   -0.08    0.01   -1.16    0.22    0.00    0.00      -0.30   -2.17    0.41
#  31    0.26   -0.67    0.44    0.02   -0.08    0.00    0.00      -0.02    0.05   -0.17
#  32   -1.82   -0.31    0.03    0.34   -0.11    0.00    0.00      -1.86    0.88   -0.28
#  33   -0.86   -0.23    0.02    0.10   -0.06    0.00    0.00      -1.03    0.47   -0.28
#  34   -1.37   -0.19    0.01    0.09   -0.06    0.00    0.00      -1.52    0.43   -0.28
#  35   -1.33   -0.40    0.14    0.16   -0.09    0.00    0.00      -1.52    0.50   -0.28
#  36   -0.52   -0.43    0.09    0.22   -0.10    0.00    0.00      -0.74    0.62   -0.28
#  37    0.43   -0.58    0.30    0.01   -0.11    0.00    0.00       0.06    0.02   -0.27
@<TRIPOS>MOLECULE
E9856492
   37    39     0     0     0
SMALL
USER_CHARGES


@<TRIPOS>ATOM
      1 C1         12.2936   15.4810   64.2990 C.3       1            -0.1220
      2 C2         13.7321   15.4644   64.7479 C.ar      1            -0.0529
      3 C3         14.0353   15.2540   66.0813 C.ar      1            -0.1359
      4 C4         15.3505   15.2383   66.4986 C.ar      1            -0.0572
      5 C5         16.3751   15.4346   65.5728 C.ar      1            -0.1305
      6 C6         16.0630   15.6459   64.2299 C.ar      1            -0.0515
      7 C7         14.7442   15.6542   63.8241 C.ar      1            -0.1383
      8 C8         17.7890   15.4194   66.0142 C.2       1             0.5381
      9 O1         18.0588   15.2350   67.1885 O.2       1            -0.5615
     10 N1         18.7685   15.6078   65.1253 N.2       1            -0.5933
     11 C9         19.3036   14.5647   64.4929 C.2       1             0.4581
     12 N2         18.9512   13.2727   64.6479 N.pl3     1            -0.5271
     13 O2         19.7745   12.5066   63.7857 O.3       1             0.0450
     14 N3         20.6391   13.3958   63.1042 N.2       1            -0.2422
     15 C10        20.3812   14.6138   63.4946 C.2       1             0.1881
     16 C11        21.0635   15.8403   63.0155 C.ar      1            -0.0697
     17 C12        20.5634   16.5346   61.9152 C.ar      1            -0.0591
     18 C13        21.2022   17.6756   61.4741 C.ar      1            -0.1295
     19 C14        22.3369   18.1304   62.1215 C.ar      1            -0.0483
     20 C15        23.0299   19.3770   61.6352 C.3       1            -0.1236
     21 C16        22.8376   17.4454   63.2142 C.ar      1            -0.1305
     22 C17        22.2038   16.3065   63.6676 C.ar      1            -0.0651
     23 H1         11.6430   15.3160   65.1579 H         1             0.0760
     24 H2         12.0641   16.4473   63.8499 H         1             0.0699
     25 H3         12.1330   14.6917   63.5647 H         1             0.0707
     26 H4         13.2409   15.1022   66.7971 H         1             0.1292
     27 H5         15.5857   15.0746   67.5398 H         1             0.1330
     28 H6         16.8521   15.7985   63.5085 H         1             0.1395
     29 H7         14.5016   15.8137   62.7838 H         1             0.1301
     30 H8         18.2628   12.9311   65.2397 H         1             0.4780
     31 H9         19.6780   16.1800   61.4085 H         1             0.1617
     32 H10        20.8157   18.2144   60.6216 H         1             0.1343
     33 H11        23.8977   19.5789   62.2631 H         1             0.0777
     34 H12        23.3529   19.2344   60.6040 H         1             0.0711
     35 H13        22.3403   20.2196   61.6866 H         1             0.0721
     36 H14        23.7241   17.8049   63.7156 H         1             0.1327
     37 H15        22.5931   15.7751   64.5235 H         1             0.1331
@<TRIPOS>BOND
     1    1    2 1 
     2    1   23 1 
     3    1   24 1 
     4    1   25 1 
     5    2    7 ar
     6    2    3 ar
     7    3    4 ar
     8    3   26 1 
     9    4    5 ar
    10    4   27 1 
    11    5    6 ar
    12    5    8 1 
    13    6    7 ar
    14    6   28 1 
    15    7   29 1 
    16    8    9 2 
    17    8   10 1 
    18   10   11 2 
    19   11   15 1 
    20   11   12 1 
    21   12   13 1 
    22   12   30 1 
    23   13   14 1 
    24   14   15 2 
    25   15   16 1 
    26   16   22 ar
    27   16   17 ar
    28   17   18 ar
    29   17   31 1 
    30   18   19 ar
    31   18   32 1 
    32   19   20 1 
    33   19   21 ar
    34   20   33 1 
    35   20   34 1 
    36   20   35 1 
    37   21   22 ar
    38   21   36 1 
    39   22   37 1 
##########                 Name:             E1344735
##########          Protonation:                   71
##########               SMILES:   c1cc(c(cc1CN2CC[NH+](CC2)CCO)F)F
##########            Long Name:   2-[4-[(3,4-difluorophenyl)methyl]piperazin-1-ium-1-yl]ethanol
##########          FlexRecCode: 1
##########               Number:                  479
##########   Ligand Source File: /raidb/db2/rgc/leads-emolecules-300/leads-emolecules-3-ae-0000011.db2.gz
##########           GlobalRank: 2054
##########                 Rank:                    1
##########               Setnum:                   44
##########             Matchnum:                 3016
##########                Cloud:                    1
##########        Electrostatic:           -27.448185
##########        Van der Waals:           -22.779732
##########  Ligand Polar Desolv:            10.171772
########## Ligand Apolar Desolv:            -1.463090
##########      Internal Energy:             0.000000
##########      Receptor Energy: 0.0
########## Receptor Desolvation:             0.000000
########## Receptor Hydrophobic:             0.000000
##########         Total Energy: -41.52
##########        Ligand Charge:             1.000000
##########            Arbitrary:    +999.9990
##########     heavy atom count:   18
##########           pose count:    1
##########        Ligand Energy:             0.000000
# num electro vdwattr vdwrepu polsolv apolsol rdesolv rhydroe totalscore fullpol fullapo
#   1    9.82   -2.21    1.19   -5.19    0.60    0.00    0.00       4.21  -14.60    1.68
#   2   -0.90   -1.05    0.29    0.32   -0.05    0.00    0.00      -1.38    0.97   -0.14
#   3    0.37   -1.27    0.36   -0.04   -0.13    0.00    0.00      -0.71   -0.11   -0.32
#   4    9.48   -1.56    0.67   -4.32    0.17    0.00    0.00       4.44  -10.97    0.43
#   5  -16.34   -0.11    0.03    5.56    0.20    0.00    0.00     -10.66   14.24    0.52
#   6    0.05   -1.12    0.19    0.19   -0.19    0.00    0.00      -0.88    0.42   -0.42
#   7   -0.25   -0.76    0.07    0.21   -0.17    0.00    0.00      -0.91    0.47   -0.39
#   8    4.09   -0.97    0.06   -5.14    1.22    0.00    0.00      -0.74  -13.56    3.21
#   9   -0.21   -1.18    0.20    0.94   -0.17    0.00    0.00      -0.42    2.16   -0.39
#  10   -0.08   -1.67    0.35   -0.25   -0.15    0.00    0.00      -1.80   -0.57   -0.34
#  11   -0.47   -1.69    0.41   -0.56   -0.20    0.00    0.00      -2.52   -1.25   -0.45
#  12    0.35   -1.64    0.31   -0.12   -0.20    0.00    0.00      -1.29   -0.20   -0.34
#  13   -0.79   -0.91    0.11   -0.30   -0.28    0.00    0.00      -2.16   -0.51   -0.47
#  14    0.28   -2.15    0.42   -0.16   -0.20    0.00    0.00      -1.82   -0.26   -0.34
#  15   -0.56   -2.06    0.64   -0.32   -0.31    0.00    0.00      -2.61   -0.48   -0.47
#  16   -0.12   -2.48    0.87   -0.80   -0.25    0.00    0.00      -2.78   -1.50   -0.47
#  17    0.00   -1.96    0.64   -0.48   -0.17    0.00    0.00      -1.97   -1.05   -0.37
#  18   -0.18   -0.65    0.06    0.03   -0.12    0.00    0.00      -0.86    0.08   -0.37
#  19    0.12   -0.63    0.08    0.07   -0.12    0.00    0.00      -0.49    0.22   -0.41
#  20  -10.21   -0.12    0.04    3.42    0.43    0.00    0.00      -6.45    9.94    1.24
#  21   -0.88   -0.16    0.01    0.46   -0.04    0.00    0.00      -0.61    2.78   -0.23
#  22   -1.82   -0.53    0.56    0.47   -0.08    0.00    0.00      -1.40    1.71   -0.28
#  23   -2.70   -0.50    0.36    1.53   -0.05    0.00    0.00      -1.36    4.93   -0.15
#  24   -4.21   -0.71    0.55    1.76   -0.11    0.00    0.00      -2.71    4.38   -0.28
#  25   -3.30   -0.47    0.14    2.21   -0.12    0.00    0.00      -1.54    5.30   -0.28
#  26   -2.74   -0.59    0.44    1.61   -0.11    0.00    0.00      -1.39    3.97   -0.28
#  27   -0.68   -0.30    0.04    0.79   -0.06    0.00    0.00      -0.21    2.60   -0.21
#  28   -0.69   -0.28    0.05    0.75   -0.08    0.00    0.00      -0.24    2.55   -0.28
#  29   -0.17   -0.69    0.38    0.89   -0.11    0.00    0.00       0.31    2.32   -0.28
#  30   -0.06   -0.53    0.20    0.86   -0.12    0.00    0.00       0.35    1.98   -0.27
#  31    1.39   -0.38    0.11    0.73   -0.09    0.00    0.00       1.74    2.16   -0.28
#  32   -0.16   -0.81    0.56    1.07   -0.14    0.00    0.00       0.52    2.21   -0.28
#  33   -0.16   -0.37    0.10    1.43   -0.08    0.00    0.00       0.91    4.80   -0.28
#  34   -0.61   -0.30    0.04    0.77   -0.06    0.00    0.00      -0.15    2.97   -0.22
#  35   -1.07   -0.28    0.10    0.40   -0.04    0.00    0.00      -0.89    2.11   -0.21
#  36   -2.13   -0.21    0.03    0.75   -0.06    0.00    0.00      -1.61    3.75   -0.28
#  37   -1.92   -0.15    0.01    0.62   -0.03    0.00    0.00      -1.46    4.86   -0.23
@<TRIPOS>MOLECULE
E1344735
   37    38     0     0     0
SMALL
USER_CHARGES


@<TRIPOS>ATOM
      1 O1         24.0834   22.1978   59.2465 O.3       1            -0.5798
      2 C1         23.8540   21.8687   60.6180 C.3       1             0.0471
      3 C2         22.8117   20.7521   60.7070 C.3       1            -0.0154
      4 N1         23.3034   19.5654   59.9943 N.4       1            -0.3818
      5 H1         23.4654   19.7980   59.0259 H         1             0.4359
      6 C3         22.3023   18.4938   60.0794 C.3       1            -0.0026
      7 C4         22.0427   18.1535   61.5485 C.3       1             0.0245
      8 N2         23.2994   17.7245   62.1786 N.3       1            -0.5336
      9 C5         23.0804   17.3341   63.5777 C.3       1             0.0980
     10 C6         22.5195   15.9363   63.6273 C.ar      1            -0.0789
     11 C7         21.1514   15.7396   63.5943 C.ar      1            -0.1010
     12 C8         20.6356   14.4564   63.6394 C.ar      1             0.0737
     13 F1         19.2989   14.2635   63.6068 F         1            -0.1211
     14 C9         21.4923   13.3686   63.7177 C.ar      1             0.0795
     15 F2         20.9911   12.1148   63.7614 F         1            -0.1206
     16 C10        22.8611   13.5688   63.7505 C.ar      1            -0.1229
     17 C11        23.3734   14.8520   63.7000 C.ar      1            -0.1002
     18 C12        24.3193   18.7781   62.0790 C.3       1             0.0175
     19 C13        24.5600   19.1131   60.6058 C.3       1            -0.0072
     20 H2         24.4100   21.4595   58.7142 H         1             0.4102
     21 H3         24.7862   21.5325   61.0718 H         1             0.0713
     22 H4         23.4891   22.7492   61.1468 H         1             0.0942
     23 H5         22.6367   20.5011   61.7531 H         1             0.1388
     24 H6         21.8794   21.0882   60.2531 H         1             0.1394
     25 H7         21.3743   18.8258   59.6138 H         1             0.1376
     26 H8         22.6723   17.6089   59.5613 H         1             0.1409
     27 H9         21.6597   19.0344   62.0637 H         1             0.0625
     28 H10        21.3109   17.3481   61.6114 H         1             0.1261
     29 H11        24.0276   17.3649   64.1160 H         1             0.0629
     30 H12        22.3762   18.0248   64.0416 H         1             0.1037
     31 H13        20.4852   16.5876   63.5337 H         1             0.1492
     32 H14        23.5293   12.7226   63.8113 H         1             0.1510
     33 H15        24.4420   15.0074   63.7211 H         1             0.1368
     34 H16        23.9740   19.6693   62.6030 H         1             0.0622
     35 H17        25.2484   18.4284   62.5291 H         1             0.1261
     36 H18        24.9183   18.2250   60.0851 H         1             0.1412
     37 H19        25.3060   19.9041   60.5306 H         1             0.1346
@<TRIPOS>BOND
     1    1    2 1 
     2    1   20 1 
     3    2    3 1 
     4    2   21 1 
     5    2   22 1 
     6    3    4 1 
     7    3   23 1 
     8    3   24 1 
     9    4    5 1 
    10    4   19 1 
    11    4    6 1 
    12    6    7 1 
    13    6   25 1 
    14    6   26 1 
    15    7    8 1 
    16    7   27 1 
    17    7   28 1 
    18    8    9 1 
    19    8   18 1 
    20    9   10 1 
    21    9   29 1 
    22    9   30 1 
    23   10   17 ar
    24   10   11 ar
    25   11   12 ar
    26   11   31 1 
    27   12   13 1 
    28   12   14 ar
    29   14   15 1 
    30   14   16 ar
    31   16   17 ar
    32   16   32 1 
    33   17   33 1 
    34   18   19 1 
    35   18   34 1 
    36   18   35 1 
    37   19   36 1 
    38   19   37 1 
##########                 Name:            E36680574
##########          Protonation:                   44
##########               SMILES:   c1cocc1c2nc(on2)CN3CC[NH+](CC3)CCO
##########            Long Name:   2-[4-[[3-(3-furyl)-1,2,4-oxadiazol-5-yl]methyl]piperazin-1-ium-1-yl]ethanol
##########          FlexRecCode: 1
##########               Number:                  185
##########   Ligand Source File: /raidb/db2/rgc/leads-emolecules-300/leads-lt300-emolecules-1i-0000137.db2.gz
##########           GlobalRank: 2054
##########                 Rank:                    1
##########               Setnum:                   68
##########             Matchnum:                  748
##########                Cloud:                    1
##########        Electrostatic:           -27.723812
##########        Van der Waals:           -21.696884
##########  Ligand Polar Desolv:             7.824190
########## Ligand Apolar Desolv:             0.073501
##########      Internal Energy:             0.000000
##########      Receptor Energy: 0.0
########## Receptor Desolvation:             0.000000
########## Receptor Hydrophobic:             0.000000
##########         Total Energy: -41.52
##########        Ligand Charge:             1.000000
##########            Arbitrary:    +999.9990
##########     heavy atom count:   20
##########           pose count:    1
##########        Ligand Energy:             0.000000
# num electro vdwattr vdwrepu polsolv apolsol rdesolv rhydroe totalscore fullpol fullapo
#   1    3.59   -1.97    0.79   -5.13    0.60    0.00    0.00      -2.11  -14.35    1.68
#   2   -0.57   -0.86    0.18    0.28   -0.04    0.00    0.00      -1.01    0.91   -0.14
#   3    0.19   -0.58    0.05   -0.04   -0.09    0.00    0.00      -0.46   -0.14   -0.32
#   4    7.97   -1.30    0.62   -3.44    0.14    0.00    0.00       3.99  -10.80    0.43
#   5  -13.61   -0.09    0.02    4.54    0.17    0.00    0.00      -8.98   14.29    0.52
#   6    0.05   -1.14    0.29    0.15   -0.16    0.00    0.00      -0.81    0.38   -0.42
#   7   -0.59   -0.97    0.13    0.22   -0.17    0.00    0.00      -1.40    0.49   -0.39
#   8    8.29   -1.13    0.13   -4.68    1.18    0.00    0.00       3.78  -12.77    3.21
#   9   -1.23   -0.62    0.03    1.01   -0.16    0.00    0.00      -0.97    2.71   -0.43
#  10   -0.92   -1.24    0.13    1.60   -0.26    0.00    0.00      -0.69    3.79   -0.61
#  11    0.26   -1.48    0.46   -2.14    1.28    0.00    0.00      -1.62   -5.28    3.15
#  12    1.60   -1.63    0.38    0.77   -1.01    0.00    0.00       0.11    1.71   -2.23
#  13   -3.69   -2.99    2.30   -0.64    0.62    0.00    0.00      -4.40   -1.37    1.31
#  14   -0.17   -2.22    1.34   -0.39   -0.07    0.00    0.00      -1.51   -0.85   -0.15
#  15   -0.76   -1.63    0.26   -0.78   -0.26    0.00    0.00      -3.17   -1.33   -0.44
#  16    0.18   -2.23    0.48    0.49   -0.17    0.00    0.00      -1.24    0.80   -0.27
#  17   -0.40   -3.01    0.86   -1.01    0.14    0.00    0.00      -3.42   -1.51    0.21
#  18   -0.03   -3.95    2.75   -0.08   -0.18    0.00    0.00      -1.48   -0.12   -0.28
#  19   -1.10   -2.09    0.53   -0.82   -0.31    0.00    0.00      -3.78   -1.37   -0.51
#  20   -0.32   -0.96    0.27    0.09   -0.12    0.00    0.00      -1.05    0.26   -0.37
#  21    0.09   -0.62    0.12    0.11   -0.11    0.00    0.00      -0.40    0.42   -0.41
#  22   -2.16   -0.02    0.00    2.64    0.34    0.00    0.00       0.80    9.77    1.24
#  23   -0.48   -0.14    0.01    0.34   -0.03    0.00    0.00      -0.31    2.43   -0.23
#  24   -2.13   -0.57    0.45    0.51   -0.08    0.00    0.00      -1.82    1.70   -0.28
#  25   -0.96   -0.10    0.00    0.46   -0.01    0.00    0.00      -0.61    4.83   -0.15
#  26   -1.19   -0.24    0.06    0.92   -0.05    0.00    0.00      -0.50    4.83   -0.28
#  27   -2.51   -0.50    0.37    1.58   -0.07    0.00    0.00      -1.12    5.98   -0.28
#  28   -4.09   -0.60    0.33    1.52   -0.11    0.00    0.00      -2.95    4.01   -0.28
#  29   -1.19   -0.25    0.02    1.05   -0.07    0.00    0.00      -0.44    3.20   -0.21
#  30   -3.89   -0.59    0.28    1.34   -0.12    0.00    0.00      -2.98    3.23   -0.28
#  31   -0.74   -0.17    0.01    0.48   -0.04    0.00    0.00      -0.46    3.12   -0.28
#  32   -1.22   -0.24    0.02    0.81   -0.07    0.00    0.00      -0.71    3.10   -0.28
#  33    0.36   -0.50    0.14    1.98   -0.14    0.00    0.00       1.84    3.95   -0.28
#  34   -0.53   -1.67    2.94    1.89   -0.17    0.00    0.00       2.46    3.08   -0.28
#  35    1.45   -0.35    0.05    0.24   -0.11    0.00    0.00       1.29    0.61   -0.28
#  36   -0.79   -0.17    0.01    0.57   -0.04    0.00    0.00      -0.43    2.86   -0.22
#  37   -3.41   -1.02    1.57    0.32   -0.08    0.00    0.00      -2.62    0.86   -0.22
#  38   -1.72   -0.16    0.03    0.48   -0.04    0.00    0.00      -1.41    3.49   -0.28
#  39   -1.35   -0.13    0.01    0.59   -0.03    0.00    0.00      -0.92    4.52   -0.23
@<TRIPOS>MOLECULE
E36680574
   39    41     0     0     0
SMALL
USER_CHARGES


@<TRIPOS>ATOM
      1 O1         24.4469   23.1105   58.4244 O.3       1            -0.5800
      2 C1         24.2588   23.2778   59.8311 C.3       1             0.0468
      3 C2         24.9130   22.1120   60.5754 C.3       1            -0.0161
      4 N1         24.2970   20.8494   60.1456 N.4       1            -0.3825
      5 H1         24.1333   20.8771   59.1504 H         1             0.4373
      6 C3         23.0194   20.6653   60.8466 C.3       1            -0.0022
      7 C4         22.3699   19.3576   60.3885 C.3       1             0.0275
      8 N2         23.2745   18.2377   60.6832 N.3       1            -0.5362
      9 C5         23.4628   18.0802   62.1316 C.3       1             0.1407
     10 C6         22.2827   17.3465   62.7148 C.2       1             0.2879
     11 N3         22.1808   16.0551   62.8502 N.2       1            -0.5340
     12 C7         20.9964   15.7422   63.4063 C.2       1             0.3333
     13 N4         20.3328   16.8506   63.6288 N.2       1            -0.3158
     14 O2         21.1645   17.9128   63.1864 O.3       1            -0.0878
     15 C8         20.5206   14.3719   63.7154 C.2       1            -0.1554
     16 C9         21.1848   13.2058   63.5026 C.2       1             0.0518
     17 O3         20.4107   12.1946   63.9191 O.3       1            -0.1688
     18 C10        19.2474   12.6544   64.4041 C.2       1            -0.0200
     19 C11        19.2378   13.9951   64.3202 C.2       1            -0.1835
     20 C12        24.5636   18.4191   60.0012 C.3       1             0.0183
     21 C13        25.1977   19.7331   60.4622 C.3       1            -0.0062
     22 H2         25.3744   23.0827   58.1522 H         1             0.4104
     23 H3         24.7158   24.2147   60.1499 H         1             0.0714
     24 H4         23.1924   23.2990   60.0550 H         1             0.0952
     25 H5         25.9794   22.0906   60.3514 H         1             0.1391
     26 H6         24.7696   22.2396   61.6482 H         1             0.1410
     27 H7         23.1970   20.6256   61.9212 H         1             0.1418
     28 H8         22.3563   21.4997   60.6185 H         1             0.1427
     29 H9         21.4281   19.2140   60.9180 H         1             0.0693
     30 H10        22.1817   19.4010   59.3157 H         1             0.1321
     31 H11        24.3735   17.5115   62.3200 H         1             0.1003
     32 H12        23.5454   19.0628   62.5962 H         1             0.1313
     33 H13        22.1700   13.1101   63.0706 H         1             0.2171
     34 H14        18.4495   12.0452   64.8026 H         1             0.2163
     35 H15        18.4458   14.6602   64.6317 H         1             0.1619
     36 H16        25.2256   17.5891   60.2476 H         1             0.0711
     37 H17        24.4039   18.4502   58.9234 H         1             0.1254
     38 H18        26.1488   19.8769   59.9494 H         1             0.1414
     39 H19        25.3672   19.6971   61.5384 H         1             0.1373
@<TRIPOS>BOND
     1    1    2 1 
     2    1   22 1 
     3    2    3 1 
     4    2   23 1 
     5    2   24 1 
     6    3    4 1 
     7    3   25 1 
     8    3   26 1 
     9    4    5 1 
    10    4   21 1 
    11    4    6 1 
    12    6    7 1 
    13    6   27 1 
    14    6   28 1 
    15    7    8 1 
    16    7   29 1 
    17    7   30 1 
    18    8    9 1 
    19    8   20 1 
    20    9   10 1 
    21    9   31 1 
    22    9   32 1 
    23   10   14 1 
    24   10   11 2 
    25   11   12 1 
    26   12   13 2 
    27   12   15 1 
    28   13   14 1 
    29   15   19 1 
    30   15   16 2 
    31   16   17 1 
    32   16   33 1 
    33   17   18 1 
    34   18   19 2 
    35   18   34 1 
    36   19   35 1 
    37   20   21 1 
    38   20   36 1 
    39   20   37 1 
    40   21   38 1 
    41   21   39 1 
##########                 Name:            E27419739
##########          Protonation:                  100
##########               SMILES:   Cc1c(cco1)C(=O)NCc2nncn2c3ccccc3
##########            Long Name:   2-methyl-N-[(4-phenyl-1,2,4-triazol-3-yl)methyl]furan-3-carboxamide
##########          FlexRecCode: 1
##########               Number:                  185
##########   Ligand Source File: /raidb/db2/rgc/leads-emolecules-300/2-leads-lt300-emolecules-1-0000046.db2.gz
##########           GlobalRank: 2072
##########                 Rank:                    1
##########               Setnum:                  144
##########             Matchnum:                 4421
##########                Cloud:                    1
##########        Electrostatic:           -12.021900
##########        Van der Waals:           -31.663141
##########  Ligand Polar Desolv:             6.075190
########## Ligand Apolar Desolv:            -3.904781
##########      Internal Energy:             0.000000
##########      Receptor Energy: 0.0
########## Receptor Desolvation:             0.000000
########## Receptor Hydrophobic:             0.000000
##########         Total Energy: -41.51
##########        Ligand Charge:             0.000000
##########            Arbitrary:    +999.9990
##########     heavy atom count:   21
##########           pose count:    1
##########        Ligand Energy:             0.000000
# num electro vdwattr vdwrepu polsolv apolsol rdesolv rhydroe totalscore fullpol fullapo
#   1   -0.13   -3.17    1.45    0.05   -0.12    0.00    0.00      -1.92    0.07   -0.18
#   2    0.49   -3.17    0.89   -0.09   -0.22    0.00    0.00      -2.10   -0.14   -0.34
#   3   -3.21   -2.47    0.68    0.43   -0.28    0.00    0.00      -4.86    0.65   -0.43
#   4   -2.44   -2.45    0.83   -0.11   -0.31    0.00    0.00      -4.48   -0.17   -0.49
#   5   -0.29   -2.68    0.71   -0.03   -0.18    0.00    0.00      -2.48   -0.05   -0.27
#   6   -0.67   -3.16    0.85    0.14    0.12    0.00    0.00      -2.71    0.22    0.19
#   7    9.41   -2.22    0.46   -1.32   -0.40    0.00    0.00       5.94   -2.18   -0.66
#   8  -14.21   -4.44    5.33    2.34    0.23    0.00    0.00     -10.76    3.95    0.38
#   9   -7.33   -2.46    1.16    0.63    1.11    0.00    0.00      -6.88    1.06    1.86
#  10    1.78   -1.35    0.31   -0.28   -0.23    0.00    0.00       0.24   -0.51   -0.41
#  11    0.81   -1.62    0.34   -0.30   -1.16    0.00    0.00      -1.92   -0.52   -2.01
#  12   -1.09   -1.99    0.33    1.30    0.73    0.00    0.00      -0.72    2.12    1.19
#  13   -1.13   -2.70    1.03    1.16    0.74    0.00    0.00      -0.89    2.00    1.27
#  14    0.38   -2.23    0.96   -0.07   -1.58    0.00    0.00      -2.54   -0.14   -3.18
#  15   -1.24   -1.59    0.34    0.13    0.39    0.00    0.00      -1.97    0.29    0.85
#  16    0.05   -1.45    0.26    0.03   -0.26    0.00    0.00      -1.36    0.08   -0.61
#  17    0.20   -1.80    0.33   -0.07   -0.19    0.00    0.00      -1.53   -0.16   -0.42
#  18    0.68   -1.78    0.27   -0.14   -0.20    0.00    0.00      -1.18   -0.33   -0.47
#  19    1.28   -1.55    0.25   -0.20   -0.21    0.00    0.00      -0.42   -0.44   -0.47
#  20    1.03   -1.57    0.37   -0.21   -0.22    0.00    0.00      -0.60   -0.45   -0.47
#  21    0.22   -1.77    0.64   -0.14   -0.20    0.00    0.00      -1.26   -0.33   -0.45
#  22    0.46   -0.67    0.28    0.08   -0.16    0.00    0.00      -0.01    0.14   -0.28
#  23    0.31   -1.88    2.39   -0.12   -0.19    0.00    0.00       0.52   -0.17   -0.28
#  24   -0.70   -1.76    2.57   -0.08   -0.18    0.00    0.00      -0.16   -0.12   -0.28
#  25    1.86   -0.48    0.10    0.33   -0.13    0.00    0.00       1.67    0.67   -0.27
#  26    1.88   -0.53    0.16    0.93   -0.15    0.00    0.00       2.30    1.73   -0.28
#  27    2.90   -0.08    0.01    0.02    0.21    0.00    0.00       3.06    0.05    0.49
#  28    0.55   -0.84    0.86   -0.09   -0.13    0.00    0.00       0.35   -0.18   -0.26
#  29    1.39   -0.42    0.13   -0.14   -0.12    0.00    0.00       0.84   -0.35   -0.28
#  30    0.25   -0.55    0.35    0.48   -0.10    0.00    0.00       0.43    1.31   -0.28
#  31    0.01   -0.61    0.26    0.05   -0.09    0.00    0.00      -0.39    0.13   -0.22
#  32   -0.85   -0.58    0.18    0.26   -0.11    0.00    0.00      -1.09    0.69   -0.28
#  33   -2.51   -0.40    0.14    0.35   -0.09    0.00    0.00      -2.51    1.10   -0.28
#  34   -2.12   -0.32    0.04    0.47   -0.11    0.00    0.00      -2.04    1.17   -0.28
#  35   -0.05   -0.51    0.33    0.27   -0.12    0.00    0.00      -0.08    0.65   -0.28
@<TRIPOS>MOLECULE
E27419739
   35    37     0     0     0
SMALL
USER_CHARGES


@<TRIPOS>ATOM
      1 C1         17.7242   14.2774   67.2333 C.3       1            -0.0780
      2 C2         16.4168   14.7604   66.6598 C.2       1             0.0891
      3 C3         16.2564   15.3940   65.4624 C.2       1            -0.2541
      4 C4         14.8155   15.6626   65.3468 C.2       1            -0.1913
      5 C5         14.2583   15.1735   66.4652 C.2       1            -0.0319
      6 O1         15.2170   14.6356   67.2351 O.3       1            -0.1729
      7 C6         17.3077   15.7380   64.4885 C.2       1             0.5982
      8 O2         17.4956   16.8996   64.1813 O.2       1            -0.5319
      9 N1         18.0610   14.7652   63.9383 N.am      1            -0.7237
     10 C7         19.1060   15.1070   62.9701 C.3       1             0.2127
     11 C8         20.4432   14.6473   63.4913 C.2       1             0.1596
     12 N2         20.7074   13.4886   64.0308 N.2       1            -0.2630
     13 N3         21.9481   13.4330   64.3626 N.2       1            -0.2869
     14 C9         22.5413   14.5536   64.0522 C.2       1             0.1712
     15 N4         21.6038   15.3616   63.4816 N.pl3     1            -0.4241
     16 C10        21.7935   16.6613   62.9894 C.ar      1             0.1036
     17 C11        22.7624   17.4826   63.5494 C.ar      1            -0.1071
     18 C12        22.9474   18.7617   63.0622 C.ar      1            -0.0996
     19 C13        22.1673   19.2246   62.0177 C.ar      1            -0.1035
     20 C14        21.2023   18.4087   61.4578 C.ar      1            -0.1004
     21 C15        21.0168   17.1266   61.9372 C.ar      1            -0.1073
     22 H1         18.5338   14.5169   66.5438 H         1             0.0788
     23 H2         17.9046   14.7678   68.1899 H         1             0.0984
     24 H3         17.6797   13.1984   67.3807 H         1             0.0975
     25 H4         14.3090   16.1532   64.5288 H         1             0.1548
     26 H5         13.2058   15.2044   66.7056 H         1             0.2097
     27 H6         17.9112   13.8386   64.1834 H         1             0.4028
     28 H7         18.8970   14.6139   62.0208 H         1             0.0917
     29 H8         19.1251   16.1867   62.8223 H         1             0.1097
     30 H9         23.5819   14.7938   64.2132 H         1             0.2252
     31 H10        23.3707   17.1219   64.3657 H         1             0.1299
     32 H11        23.7010   19.4012   63.4976 H         1             0.1361
     33 H12        22.3135   20.2254   61.6389 H         1             0.1347
     34 H13        20.5952   18.7729   60.6422 H         1             0.1378
     35 H14        20.2653   16.4883   61.4966 H         1             0.1341
@<TRIPOS>BOND
     1    1    2 1 
     2    1   22 1 
     3    1   23 1 
     4    1   24 1 
     5    2    6 1 
     6    2    3 2 
     7    3    4 1 
     8    3    7 1 
     9    4    5 2 
    10    4   25 1 
    11    5    6 1 
    12    5   26 1 
    13    7    8 2 
    14    7    9 am
    15    9   10 1 
    16    9   27 1 
    17   10   11 1 
    18   10   28 1 
    19   10   29 1 
    20   11   15 1 
    21   11   12 2 
    22   12   13 1 
    23   13   14 2 
    24   14   15 1 
    25   14   30 1 
    26   15   16 1 
    27   16   21 ar
    28   16   17 ar
    29   17   18 ar
    30   17   31 1 
    31   18   19 ar
    32   18   32 1 
    33   19   20 ar
    34   19   33 1 
    35   20   21 ar
    36   20   34 1 
    37   21   35 1 
##########                 Name:            E36971180
##########          Protonation:                   52
##########               SMILES:   C[C@@H](O)[C@H]1CC[NH+](CC1)CC(=O)NCc2ccc(cc2)F
##########            Long Name:   luorophenyl)methyl]-2-[4-[(1R)-1-hydroxyethyl]piperidin-1-ium-1-yl]acetamide
##########          FlexRecCode: 1
##########               Number:                   87
##########   Ligand Source File: /raidb/db2/rgc/leads-emolecules-300/leads-emolecules-2g-0000096.db2.gz
##########           GlobalRank: 2072
##########                 Rank:                    1
##########               Setnum:                   80
##########             Matchnum:                 3851
##########                Cloud:                    1
##########        Electrostatic:           -26.951717
##########        Van der Waals:           -19.333494
##########  Ligand Polar Desolv:             6.286123
########## Ligand Apolar Desolv:            -1.515554
##########      Internal Energy:             0.000000
##########      Receptor Energy: 0.0
########## Receptor Desolvation:             0.000000
########## Receptor Hydrophobic:             0.000000
##########         Total Energy: -41.51
##########        Ligand Charge:             1.000000
##########            Arbitrary:    +999.9990
##########     heavy atom count:   21
##########           pose count:    1
##########        Ligand Energy:             0.000000
# num electro vdwattr vdwrepu polsolv apolsol rdesolv rhydroe totalscore fullpol fullapo
#   1   -0.47   -0.45    0.04   -0.67   -0.04    0.00    0.00      -1.59   -3.10   -0.18
#   2   -0.15   -0.57    0.07    0.40   -0.03    0.00    0.00      -0.28    1.76   -0.14
#   3   -0.27   -2.53    1.69   -3.04    0.46    0.00    0.00      -3.68  -10.06    1.53
#   4    0.47   -0.33    0.01   -0.38   -0.03    0.00    0.00      -0.26   -1.93   -0.15
#   5    1.89   -0.63    0.08   -1.07   -0.05    0.00    0.00       0.22   -3.82   -0.18
#   6    0.16   -0.84    0.21    0.12   -0.13    0.00    0.00      -0.48    0.39   -0.42
#   7    8.14   -2.20    3.82   -3.00    0.11    0.00    0.00       6.86  -10.19    0.37
#   8  -16.64   -0.33    0.40    4.50    0.17    0.00    0.00     -11.90   14.39    0.53
#   9    0.87   -1.30    0.56   -0.23   -0.12    0.00    0.00      -0.21   -0.64   -0.33
#  10   -5.57   -0.83    0.05    3.47   -0.19    0.00    0.00      -3.06   11.46   -0.63
#  11    3.97   -0.64    0.03   -3.01    0.09    0.00    0.00       0.44  -11.03    0.33
#  12    6.73   -0.91    0.04   -5.69    0.90    0.00    0.00       1.08  -14.77    2.33
#  13   -0.64   -1.04    0.13    1.25   -0.18    0.00    0.00      -0.48    2.97   -0.44
#  14    0.03   -1.48    0.24   -0.60   -0.16    0.00    0.00      -1.97   -1.42   -0.37
#  15   -0.30   -1.76    0.45   -0.37   -0.20    0.00    0.00      -2.18   -0.83   -0.45
#  16   -0.81   -1.60    0.32   -0.86   -0.25    0.00    0.00      -3.21   -1.60   -0.47
#  17    0.37   -1.93    0.52    0.05   -0.20    0.00    0.00      -1.18    0.09   -0.34
#  18   -0.49   -1.39    0.20   -0.39   -0.31    0.00    0.00      -2.38   -0.60   -0.48
#  19   -0.01   -2.07    0.60   -0.82   -0.24    0.00    0.00      -2.54   -1.63   -0.47
#  20    0.07   -1.56    0.31   -0.36   -0.19    0.00    0.00      -1.72   -0.83   -0.45
#  21    0.20   -0.47    0.06    0.00   -0.08    0.00    0.00      -0.28    0.02   -0.39
#  22    0.75   -0.35    0.02   -0.55   -0.04    0.00    0.00      -0.16   -3.06   -0.21
#  23    0.13   -0.07    0.00    0.02   -0.02    0.00    0.00       0.06    0.29   -0.28
#  24    0.20   -0.12    0.01    0.13   -0.04    0.00    0.00       0.17    1.00   -0.28
#  25    0.16   -0.24    0.08    0.24   -0.04    0.00    0.00       0.20    1.35   -0.22
#  26   -0.25   -0.19    0.03    0.07   -0.05    0.00    0.00      -0.39    0.40   -0.28
#  27   -3.53   -0.07    0.01    2.05    0.36    0.00    0.00      -1.18    6.91    1.22
#  28   -0.21   -0.08    0.00    0.18   -0.02    0.00    0.00      -0.13    2.54   -0.28
#  29   -1.28   -0.23    0.04    0.51   -0.04    0.00    0.00      -0.99    2.48   -0.20
#  30   -1.36   -0.28    0.09    0.53   -0.05    0.00    0.00      -1.08    2.27   -0.22
#  31   -1.88   -0.18    0.01    1.12   -0.05    0.00    0.00      -0.98    6.14   -0.28
#  32   -3.53   -0.36    0.09    1.57   -0.09    0.00    0.00      -2.31    5.10   -0.28
#  33   -4.21   -0.54    0.24    1.87   -0.06    0.00    0.00      -2.70    4.90   -0.15
#  34   -2.57   -0.51    0.26    2.51   -0.09    0.00    0.00      -0.40    7.57   -0.28
#  35   -5.18   -0.01    0.00    1.92    0.11    0.00    0.00      -3.17    9.83    0.56
#  36   -0.45   -0.56    0.28    0.45   -0.09    0.00    0.00      -0.37    1.34   -0.28
#  37   -0.23   -0.48    0.10    0.53   -0.12    0.00    0.00      -0.20    1.23   -0.28
#  38    1.30   -0.53    0.30    0.94   -0.10    0.00    0.00       1.91    2.69   -0.28
#  39    1.10   -0.27    0.02    0.41   -0.10    0.00    0.00       1.17    1.19   -0.28
#  40   -0.40   -0.67    0.48    0.56   -0.13    0.00    0.00      -0.16    1.26   -0.28
#  41   -0.36   -0.24    0.03    0.72   -0.07    0.00    0.00       0.06    2.87   -0.28
#  42   -1.09   -0.09    0.00    0.24   -0.02    0.00    0.00      -0.96    2.44   -0.20
#  43   -0.93   -0.13    0.01    0.62   -0.04    0.00    0.00      -0.47    4.54   -0.28
#  44   -0.54   -0.18    0.03    0.23   -0.05    0.00    0.00      -0.51    1.34   -0.28
#  45   -0.15   -0.06    0.00    0.09   -0.01    0.00    0.00      -0.12    1.78   -0.20
@<TRIPOS>MOLECULE
E36971180
   45    46     0     0     0
SMALL
USER_CHARGES


@<TRIPOS>ATOM
      1 C1         27.5991   21.9708   62.9760 C.3       1            -0.1945
      2 C2         26.2781   21.5468   62.3308 C.3       1             0.1061
      3 O1         25.1935   22.2012   62.9922 O.3       1            -0.5748
      4 C3         26.2842   21.9382   60.8518 C.3       1            -0.0927
      5 C4         24.8477   21.9700   60.3232 C.3       1            -0.1454
      6 C5         24.2410   20.5700   60.4373 C.3       1            -0.0081
      7 N1         25.0331   19.6202   59.6464 N.4       1            -0.3644
      8 H1         25.0625   19.9278   58.6857 H         1             0.4319
      9 C6         24.4095   18.2918   59.7132 C.3       1            -0.0449
     10 C7         24.3577   17.8328   61.1477 C.2       1             0.5037
     11 O2         25.2803   17.1996   61.6153 O.2       1            -0.5283
     12 N2         23.2860   18.1259   61.9108 N.am      1            -0.6997
     13 C8         23.2357   17.6796   63.3052 C.3       1             0.1631
     14 C9         22.5960   16.3169   63.3737 C.ar      1            -0.1400
     15 C10        21.2264   16.2036   63.5240 C.ar      1            -0.0668
     16 C11        20.6386   14.9544   63.5870 C.ar      1            -0.1547
     17 C12        21.4219   13.8161   63.4990 C.ar      1             0.1206
     18 F1         20.8482   12.5944   63.5599 F         1            -0.1305
     19 C13        22.7934   13.9308   63.3479 C.ar      1            -0.1547
     20 C14        23.3784   15.1810   63.2803 C.ar      1            -0.0671
     21 C15        26.4008   19.5411   60.1740 C.3       1            -0.0208
     22 C16        27.0820   20.9057   60.0509 C.3       1            -0.1412
     23 H2         28.4264   21.4717   62.4716 H         1             0.0673
     24 H3         27.7171   23.0507   62.8863 H         1             0.0707
     25 H4         27.5948   21.6922   64.0298 H         1             0.0672
     26 H5         26.1600   20.4670   62.4205 H         1             0.0664
     27 H6         24.3230   21.9787   62.6345 H         1             0.3920
     28 H7         26.7393   22.9216   60.7357 H         1             0.1010
     29 H8         24.2579   22.6720   60.9126 H         1             0.0973
     30 H9         24.8503   22.2822   59.2789 H         1             0.1140
     31 H10        24.2401   20.2594   61.4821 H         1             0.1328
     32 H11        23.2170   20.5872   60.0638 H         1             0.1352
     33 H12        23.3975   18.3450   59.3119 H         1             0.1683
     34 H13        24.9962   17.5850   59.1265 H         1             0.1585
     35 H14        22.5482   18.6324   61.5366 H         1             0.4122
     36 H15        24.2478   17.6264   63.7064 H         1             0.0900
     37 H16        22.6490   18.3863   63.8920 H         1             0.0897
     38 H17        20.6156   17.0916   63.5928 H         1             0.1357
     39 H18        19.5687   14.8662   63.7052 H         1             0.1426
     40 H19        23.4054   13.0435   63.2793 H         1             0.1426
     41 H20        24.4477   15.2708   63.1584 H         1             0.1359
     42 H21        26.3682   19.2456   61.2226 H         1             0.1492
     43 H22        26.9658   18.8014   59.6069 H         1             0.1313
     44 H23        27.1149   21.2033   59.0028 H         1             0.1106
     45 H24        28.0965   20.8435   60.4447 H         1             0.0926
@<TRIPOS>BOND
     1    1    2 1 
     2    1   23 1 
     3    1   24 1 
     4    1   25 1 
     5    2    3 1 
     6    2    4 1 
     7    2   26 1 
     8    3   27 1 
     9    4   22 1 
    10    4    5 1 
    11    4   28 1 
    12    5    6 1 
    13    5   29 1 
    14    5   30 1 
    15    6    7 1 
    16    6   31 1 
    17    6   32 1 
    18    7    8 1 
    19    7    9 1 
    20    7   21 1 
    21    9   10 1 
    22    9   33 1 
    23    9   34 1 
    24   10   11 2 
    25   10   12 am
    26   12   13 1 
    27   12   35 1 
    28   13   14 1 
    29   13   36 1 
    30   13   37 1 
    31   14   20 ar
    32   14   15 ar
    33   15   16 ar
    34   15   38 1 
    35   16   17 ar
    36   16   39 1 
    37   17   18 1 
    38   17   19 ar
    39   19   20 ar
    40   19   40 1 
    41   20   41 1 
    42   21   22 1 
    43   21   42 1 
    44   21   43 1 
    45   22   44 1 
    46   22   45 1 
##########                 Name:            E25061789
##########          Protonation:                   26
##########               SMILES:   C[C@H]1CCCC[NH+]1CCCNCc2ccc3c(c2)OCO3
##########            Long Name:   -benzodioxol-5-ylmethyl)-3-[(2S)-2-methylpiperidin-1-ium-1-yl]propan-1-amine
##########          FlexRecCode: 1
##########               Number:                   24
##########   Ligand Source File: /raidb/db2/rgc/leads-emolecules-300/leads-emolecules-3-av-0000009.db2.gz
##########           GlobalRank: 2072
##########                 Rank:                    1
##########               Setnum:                  162
##########             Matchnum:                  787
##########                Cloud:                    1
##########        Electrostatic:           -22.870502
##########        Van der Waals:           -23.024508
##########  Ligand Polar Desolv:             5.999958
########## Ligand Apolar Desolv:            -1.614959
##########      Internal Energy:             0.000000
##########      Receptor Energy: 0.0
########## Receptor Desolvation:             0.000000
########## Receptor Hydrophobic:             0.000000
##########         Total Energy: -41.51
##########        Ligand Charge:             1.000000
##########            Arbitrary:    +999.9990
##########     heavy atom count:   21
##########           pose count:    1
##########        Ligand Energy:             0.000000
# num electro vdwattr vdwrepu polsolv apolsol rdesolv rhydroe totalscore fullpol fullapo
#   1    1.24   -1.61    0.99   -1.77   -0.06    0.00    0.00      -1.22   -5.03   -0.16
#   2   -0.22   -0.70    0.14    0.50   -0.08    0.00    0.00      -0.36    1.75   -0.27
#   3    0.56   -0.38    0.01   -0.78   -0.06    0.00    0.00      -0.64   -3.35   -0.24
#   4    0.16   -0.29    0.01   -0.59   -0.04    0.00    0.00      -0.77   -3.19   -0.24
#   5    0.59   -0.32    0.01   -0.64   -0.05    0.00    0.00      -0.41   -3.38   -0.25
#   6    0.20   -0.54    0.11   -0.03   -0.08    0.00    0.00      -0.33   -0.12   -0.35
#   7    6.98   -1.79    2.34   -3.18    0.08    0.00    0.00       4.43  -10.73    0.26
#   8  -15.33   -0.28    0.27    4.66    0.17    0.00    0.00     -10.51   14.70    0.54
#   9    0.22   -0.93    0.18    0.08   -0.11    0.00    0.00      -0.55    0.25   -0.32
#  10    2.78   -0.73    0.07   -1.35   -0.08    0.00    0.00       0.69   -3.68   -0.22
#  11   -0.91   -1.24    0.38    0.45   -0.18    0.00    0.00      -1.51    1.06   -0.42
#  12    5.41   -1.31    0.15   -5.50    1.19    0.00    0.00      -0.05  -12.49    2.71
#  13   -0.44   -0.93    0.09    0.72   -0.19    0.00    0.00      -0.74    1.70   -0.44
#  14    0.00   -1.50    0.24   -0.26   -0.16    0.00    0.00      -1.67   -0.61   -0.37
#  15    0.09   -1.59    0.33   -0.34   -0.19    0.00    0.00      -1.71   -0.79   -0.45
#  16   -0.01   -2.14    0.66   -0.38   -0.23    0.00    0.00      -2.10   -0.76   -0.47
#  17    0.13   -2.05    0.43   -0.12   -0.19    0.00    0.00      -1.79   -0.20   -0.33
#  18   -1.36   -2.65    0.68   -0.42    0.34    0.00    0.00      -3.41   -0.65    0.52
#  19    0.52   -1.87    0.54    0.60    0.01    0.00    0.00      -0.20    0.93    0.02
#  20   -1.88   -1.44    0.17   -0.59    0.31    0.00    0.00      -3.43   -0.99    0.52
#  21    0.17   -1.67    0.32   -0.08   -0.19    0.00    0.00      -1.45   -0.15   -0.33
#  22   -0.46   -1.81    0.52   -0.37   -0.20    0.00    0.00      -2.32   -0.82   -0.45
#  23   -0.46   -0.25    0.04    0.41   -0.04    0.00    0.00      -0.29    1.87   -0.16
#  24   -0.72   -1.16    1.68    0.55   -0.11    0.00    0.00       0.24    1.37   -0.28
#  25   -1.59   -0.73    0.81    0.83   -0.07    0.00    0.00      -0.75    2.73   -0.22
#  26   -0.65   -0.23    0.04    1.11   -0.06    0.00    0.00       0.22    5.27   -0.28
#  27   -0.17   -0.11    0.00    0.29   -0.03    0.00    0.00      -0.02    2.51   -0.28
#  28   -0.47   -0.16    0.01    0.23   -0.04    0.00    0.00      -0.43    1.56   -0.28
#  29   -0.05   -0.07    0.00    0.03   -0.02    0.00    0.00      -0.11    0.49   -0.28
#  30    0.17   -0.10    0.00    0.13   -0.02    0.00    0.00       0.18    1.33   -0.22
#  31   -0.13   -0.08    0.00    0.19   -0.02    0.00    0.00      -0.03    2.35   -0.28
#  32   -0.51   -0.16    0.01    0.27   -0.05    0.00    0.00      -0.44    1.58   -0.28
#  33   -0.96   -0.16    0.02    0.72   -0.03    0.00    0.00      -0.41    4.63   -0.22
#  34   -1.64   -0.14    0.02    0.49   -0.03    0.00    0.00      -1.30    3.81   -0.21
#  35   -1.79   -0.30    0.11    0.93   -0.05    0.00    0.00      -1.10    4.37   -0.22
#  36   -3.48   -0.49    0.21    1.77   -0.10    0.00    0.00      -2.09    5.18   -0.28
#  37   -2.37   -0.31    0.06    0.78   -0.08    0.00    0.00      -1.92    2.60   -0.28
#  38   -1.17   -0.14    0.00    0.34   -0.03    0.00    0.00      -0.99    2.69   -0.22
#  39   -0.56   -0.84    0.85    0.39   -0.11    0.00    0.00      -0.27    1.03   -0.28
#  40   -1.61   -0.49    0.18    0.68   -0.10    0.00    0.00      -1.34    1.84   -0.28
#  41   -3.45   -0.02    0.00    1.49    0.14    0.00    0.00      -1.84    6.12    0.57
#  42   -0.32   -0.20    0.02    0.17   -0.06    0.00    0.00      -0.39    0.84   -0.28
#  43   -0.22   -0.53    0.11    0.71   -0.12    0.00    0.00      -0.04    1.61   -0.28
#  44   -0.39   -0.24    0.03    0.58   -0.07    0.00    0.00      -0.10    2.39   -0.28
#  45   -0.38   -0.59    0.29    0.43   -0.12    0.00    0.00      -0.37    0.99   -0.28
#  46    0.38   -0.60    0.17    0.75   -0.17    0.00    0.00       0.53    1.24   -0.28
#  47   -0.15   -1.01    0.80    0.53   -0.17    0.00    0.00       0.01    0.89   -0.28
#  48    1.37   -0.48    0.21    0.58   -0.10    0.00    0.00       1.59    1.68   -0.28
@<TRIPOS>MOLECULE
E25061789
   48    50     0     0     0
SMALL
USER_CHARGES


@<TRIPOS>ATOM
      1 C1         24.1769   23.3901   58.7259 C.3       1            -0.1861
      2 C2         25.3746   22.6372   59.3089 C.3       1             0.0271
      3 C3         25.8206   23.3167   60.6052 C.3       1            -0.1412
      4 C4         27.0203   22.5595   61.1807 C.3       1            -0.1406
      5 C5         26.6181   21.1005   61.4127 C.3       1            -0.1444
      6 C6         26.1455   20.4949   60.0893 C.3       1            -0.0182
      7 N1         24.9906   21.2473   59.5841 N.4       1            -0.3783
      8 H1         24.6575   20.8177   58.7341 H         1             0.4228
      9 C7         23.9195   21.2282   60.5894 C.3       1            -0.0113
     10 C8         23.5172   19.7806   60.8783 C.3       1            -0.1477
     11 C9         22.4016   19.7606   61.9254 C.3       1             0.0602
     12 N2         22.0153   18.3707   62.2028 N.3       1            -0.6847
     13 C10        22.9628   17.7358   63.1286 C.3       1             0.1062
     14 C11        22.5348   16.3145   63.3889 C.ar      1            -0.0870
     15 C12        23.4718   15.2980   63.3712 C.ar      1            -0.0837
     16 C13        23.0847   13.9919   63.6094 C.ar      1            -0.1008
     17 C14        21.7561   13.7006   63.8663 C.ar      1             0.0403
     18 O1         21.1072   12.5318   64.1296 O.3       1            -0.3062
     19 C15        19.7165   12.7684   63.8640 C.3       1             0.2130
     20 O2         19.5986   14.1685   64.1581 O.3       1            -0.3083
     21 C16        20.8119   14.7251   63.8842 C.ar      1             0.0327
     22 C17        21.2069   16.0310   63.6505 C.ar      1            -0.0953
     23 H2         24.4612   24.4223   58.5212 H         1             0.0842
     24 H3         23.8615   22.9095   57.7999 H         1             0.1045
     25 H4         23.3548   23.3748   59.4414 H         1             0.0798
     26 H5         26.1954   22.6513   58.5918 H         1             0.1366
     27 H6         26.1062   24.3477   60.3968 H         1             0.0880
     28 H7         25.0016   23.3030   61.3244 H         1             0.1113
     29 H8         27.8513   22.6020   60.4767 H         1             0.0942
     30 H9         27.3179   23.0113   62.1269 H         1             0.0833
     31 H10        27.4763   20.5404   61.7840 H         1             0.0876
     32 H11        25.8099   21.0568   62.1428 H         1             0.1112
     33 H12        26.9546   20.5404   59.3605 H         1             0.1310
     34 H13        25.8594   19.4552   60.2484 H         1             0.1306
     35 H14        24.2743   21.6969   61.5073 H         1             0.1297
     36 H15        23.0567   21.7765   60.2115 H         1             0.1323
     37 H16        23.1624   19.3118   59.9605 H         1             0.0970
     38 H17        24.3800   19.2321   61.2564 H         1             0.0856
     39 H18        22.7565   20.2292   62.8434 H         1             0.0415
     40 H19        21.5388   20.3090   61.5476 H         1             0.0851
     41 H20        21.9343   17.8405   61.3483 H         1             0.3461
     42 H21        23.9598   17.7401   62.6879 H         1             0.0473
     43 H22        22.9786   18.2884   64.0681 H         1             0.0902
     44 H23        24.5085   15.5243   63.1705 H         1             0.1395
     45 H24        23.8184   13.1996   63.5945 H         1             0.1394
     46 H25        19.4792   12.5679   62.8192 H         1             0.1362
     47 H26        19.0862   12.1760   64.5271 H         1             0.0878
     48 H27        20.4778   16.8275   63.6684 H         1             0.1314
@<TRIPOS>BOND
     1    1    2 1 
     2    1   23 1 
     3    1   24 1 
     4    1   25 1 
     5    2    7 1 
     6    2    3 1 
     7    2   26 1 
     8    3    4 1 
     9    3   27 1 
    10    3   28 1 
    11    4    5 1 
    12    4   29 1 
    13    4   30 1 
    14    5    6 1 
    15    5   31 1 
    16    5   32 1 
    17    6    7 1 
    18    6   33 1 
    19    6   34 1 
    20    7    8 1 
    21    7    9 1 
    22    9   10 1 
    23    9   35 1 
    24    9   36 1 
    25   10   11 1 
    26   10   37 1 
    27   10   38 1 
    28   11   12 1 
    29   11   39 1 
    30   11   40 1 
    31   12   13 1 
    32   12   41 1 
    33   13   14 1 
    34   13   42 1 
    35   13   43 1 
    36   14   22 ar
    37   14   15 ar
    38   15   16 ar
    39   15   44 1 
    40   16   17 ar
    41   16   45 1 
    42   17   21 ar
    43   17   18 1 
    44   18   19 1 
    45   19   20 1 
    46   19   46 1 
    47   19   47 1 
    48   20   21 1 
    49   21   22 ar
    50   22   48 1 
##########                 Name:             E3199298
##########          Protonation:                   79
##########               SMILES:   C[C@@H]1CCCC[NH+]1CC(=O)NCc2ccc3c(c2)OCO3
##########            Long Name:   -(1,3-benzodioxol-5-ylmethyl)-2-[(2R)-2-methylpiperidin-1-ium-1-yl]acetamide
##########          FlexRecCode: 1
##########               Number:                  240
##########   Ligand Source File: /raidb/db2/rgc/leads-emolecules-300/leads-emolecules-3-bl-0000012.db2.gz
##########           GlobalRank: 2072
##########                 Rank:                    1
##########               Setnum:                  133
##########             Matchnum:                  682
##########                Cloud:                    1
##########        Electrostatic:           -23.337639
##########        Van der Waals:           -22.910284
##########  Ligand Polar Desolv:             6.410192
########## Ligand Apolar Desolv:            -1.672055
##########      Internal Energy:             0.000000
##########      Receptor Energy: 0.0
########## Receptor Desolvation:             0.000000
########## Receptor Hydrophobic:             0.000000
##########         Total Energy: -41.51
##########        Ligand Charge:             1.000000
##########            Arbitrary:    +999.9990
##########     heavy atom count:   21
##########           pose count:    1
##########        Ligand Energy:             0.000000
# num electro vdwattr vdwrepu polsolv apolsol rdesolv rhydroe totalscore fullpol fullapo
#   1    2.19   -0.62    0.07   -1.52   -0.05    0.00    0.00       0.07   -5.35   -0.17
#   2   -0.32   -0.51    0.05    0.46   -0.05    0.00    0.00      -0.38    1.80   -0.21
#   3    0.95   -0.38    0.03   -0.63   -0.04    0.00    0.00      -0.07   -3.36   -0.22
#   4    0.73   -0.31    0.01   -0.53   -0.04    0.00    0.00      -0.14   -2.94   -0.25
#   5    1.47   -0.84    0.22   -0.91   -0.07    0.00    0.00      -0.14   -3.10   -0.25
#   6    0.30   -0.91    0.28    0.05   -0.11    0.00    0.00      -0.39    0.15   -0.36
#   7    8.65   -1.83    2.21   -3.23    0.03    0.00    0.00       5.83  -10.23    0.09
#   8  -17.29   -0.23    0.18    3.71    0.16    0.00    0.00     -13.47   12.14    0.51
#   9    0.92   -1.02    0.20   -0.17   -0.14    0.00    0.00      -0.21   -0.43   -0.36
#  10   -7.23   -1.35    0.21    4.79   -0.25    0.00    0.00      -3.82   11.97   -0.62
#  11    7.29   -3.80    4.27   -4.65    0.14    0.00    0.00       3.25  -11.29    0.33
#  12    6.34   -1.01    0.05   -6.33    0.94    0.00    0.00       0.00  -15.62    2.33
#  13   -0.48   -1.20    0.19    1.40   -0.20    0.00    0.00      -0.27    3.15   -0.44
#  14   -0.03   -1.62    0.30   -0.45   -0.16    0.00    0.00      -1.96   -1.05   -0.37
#  15    0.08   -1.80    0.52   -0.39   -0.19    0.00    0.00      -1.78   -0.92   -0.46
#  16    0.08   -2.15    0.74   -0.58   -0.23    0.00    0.00      -2.13   -1.20   -0.47
#  17    0.11   -2.18    0.54   -0.13   -0.18    0.00    0.00      -1.85   -0.23   -0.33
#  18   -1.78   -3.51    1.71   -0.94    0.33    0.00    0.00      -4.19   -1.47    0.52
#  19    0.61   -2.11    0.55    0.87    0.01    0.00    0.00      -0.07    1.31    0.02
#  20   -1.36   -1.49    0.16   -1.06    0.32    0.00    0.00      -3.43   -1.74    0.52
#  21    0.13   -1.69    0.39   -0.14   -0.19    0.00    0.00      -1.50   -0.24   -0.33
#  22   -0.33   -1.70    0.42   -0.42   -0.20    0.00    0.00      -2.24   -0.94   -0.46
#  23   -0.35   -0.13    0.01    0.45   -0.03    0.00    0.00      -0.05    3.66   -0.22
#  24   -1.25   -0.20    0.02    0.41   -0.06    0.00    0.00      -1.07    1.91   -0.28
#  25   -1.52   -0.39    0.23    0.48   -0.07    0.00    0.00      -1.27    1.91   -0.28
#  26   -1.20   -0.14    0.01    0.85   -0.04    0.00    0.00      -0.53    5.64   -0.28
#  27   -0.64   -0.20    0.04    0.31   -0.05    0.00    0.00      -0.54    1.82   -0.28
#  28   -0.28   -0.06    0.00    0.12   -0.02    0.00    0.00      -0.24    2.07   -0.28
#  29   -0.18   -0.07    0.00    0.04   -0.02    0.00    0.00      -0.23    0.53   -0.28
#  30   -0.31   -0.07    0.00    0.14   -0.02    0.00    0.00      -0.26    1.91   -0.28
#  31   -1.23   -0.69    0.61    0.44   -0.09    0.00    0.00      -0.96    1.37   -0.28
#  32   -0.60   -0.17    0.01    0.28   -0.06    0.00    0.00      -0.53    1.44   -0.28
#  33   -2.92   -0.46    0.19    0.84   -0.06    0.00    0.00      -2.41    2.61   -0.20
#  34   -1.40   -0.12    0.00    0.60   -0.03    0.00    0.00      -0.96    4.88   -0.28
#  35   -4.29   -0.43    0.13    2.75   -0.10    0.00    0.00      -1.94    7.81   -0.28
#  36   -4.23   -0.37    0.08    2.50   -0.07    0.00    0.00      -2.09    7.14   -0.20
#  37   -4.14   -0.01    0.00    1.91    0.10    0.00    0.00      -2.15   10.74    0.56
#  38   -0.34   -0.60    0.21    0.46   -0.11    0.00    0.00      -0.38    1.15   -0.28
#  39   -0.05   -0.65    0.45    0.75   -0.13    0.00    0.00       0.37    1.64   -0.28
#  40   -0.37   -0.35    0.09    0.93   -0.07    0.00    0.00       0.23    3.51   -0.28
#  41   -0.48   -0.49    0.19    0.59   -0.11    0.00    0.00      -0.31    1.50   -0.28
#  42    0.38   -0.79    0.40    0.87   -0.18    0.00    0.00       0.69    1.39   -0.28
#  43   -0.21   -1.14    1.19    0.77   -0.18    0.00    0.00       0.44    1.18   -0.28
#  44    1.26   -0.38    0.10    0.69   -0.09    0.00    0.00       1.59    2.07   -0.28
@<TRIPOS>MOLECULE
E3199298
   44    46     0     0     0
SMALL
USER_CHARGES


@<TRIPOS>ATOM
      1 C1         24.7387   22.2915   60.6807 C.3       1            -0.1873
      2 C2         25.3140   20.8740   60.7111 C.3       1             0.0263
      3 C3         26.7395   20.8906   60.1552 C.3       1            -0.1396
      4 C4         27.3109   19.4703   60.1880 C.3       1            -0.1396
      5 C5         26.3888   18.5411   59.3932 C.3       1            -0.1420
      6 C6         24.9763   18.6115   59.9773 C.3       1            -0.0179
      7 N1         24.4761   19.9889   59.8930 N.4       1            -0.3661
      8 H1         24.5015   20.2967   58.9325 H         1             0.4272
      9 C7         23.0920   20.0365   60.3830 C.3       1            -0.0392
     10 C8         23.0515   19.5817   61.8190 C.2       1             0.5013
     11 O1         23.1817   20.3890   62.7148 O.2       1            -0.5255
     12 N2         22.8705   18.2778   62.1081 N.am      1            -0.6997
     13 C9         22.8310   17.8357   63.5042 C.3       1             0.1666
     14 C10        22.6193   16.3444   63.5531 C.ar      1            -0.1202
     15 C11        23.7086   15.4931   63.5611 C.ar      1            -0.0843
     16 C12        23.5203   14.1239   63.6059 C.ar      1            -0.1022
     17 C13        22.2383   13.6033   63.6428 C.ar      1             0.0535
     18 O2         21.7677   12.3254   63.6900 O.3       1            -0.3032
     19 C14        20.3997   12.3783   63.2585 C.3       1             0.2122
     20 O3         20.0137   13.6961   63.6770 O.3       1            -0.3050
     21 C15        21.1403   14.4613   63.6347 C.ar      1             0.0334
     22 C16        21.3360   15.8310   63.5955 C.ar      1            -0.0809
     23 H2         25.3606   22.9490   61.2880 H         1             0.0812
     24 H3         24.7214   22.6545   59.6532 H         1             0.1089
     25 H4         23.7242   22.2805   61.0793 H         1             0.0829
     26 H5         25.3299   20.5109   61.7387 H         1             0.1378
     27 H6         26.7251   21.2536   59.1275 H         1             0.0890
     28 H7         27.3602   21.5470   60.7650 H         1             0.1132
     29 H8         28.3051   19.4669   59.7408 H         1             0.0952
     30 H9         27.3731   19.1261   61.2203 H         1             0.0814
     31 H10        26.3673   18.8553   58.3496 H         1             0.0886
     32 H11        26.7591   17.5180   59.4583 H         1             0.1121
     33 H12        24.3173   17.9510   59.4138 H         1             0.1472
     34 H13        24.9991   18.2969   61.0207 H         1             0.1239
     35 H14        22.7173   21.0578   60.3145 H         1             0.1591
     36 H15        22.4691   19.3794   59.7760 H         1             0.1623
     37 H16        22.7662   17.6321   61.3918 H         1             0.4122
     38 H17        23.7739   18.0849   63.9910 H         1             0.0912
     39 H18        22.0120   18.3360   64.0209 H         1             0.0935
     40 H19        24.7093   15.8985   63.5320 H         1             0.1414
     41 H20        24.3730   13.4611   63.6116 H         1             0.1432
     42 H21        20.3278   12.2761   62.1756 H         1             0.1392
     43 H22        19.8019   11.6184   63.7618 H         1             0.0907
     44 H23        20.4868   16.4983   63.5937 H         1             0.1381
@<TRIPOS>BOND
     1    1    2 1 
     2    1   23 1 
     3    1   24 1 
     4    1   25 1 
     5    2    7 1 
     6    2    3 1 
     7    2   26 1 
     8    3    4 1 
     9    3   27 1 
    10    3   28 1 
    11    4    5 1 
    12    4   29 1 
    13    4   30 1 
    14    5    6 1 
    15    5   31 1 
    16    5   32 1 
    17    6    7 1 
    18    6   33 1 
    19    6   34 1 
    20    7    8 1 
    21    7    9 1 
    22    9   10 1 
    23    9   35 1 
    24    9   36 1 
    25   10   11 2 
    26   10   12 am
    27   12   13 1 
    28   12   37 1 
    29   13   14 1 
    30   13   38 1 
    31   13   39 1 
    32   14   22 ar
    33   14   15 ar
    34   15   16 ar
    35   15   40 1 
    36   16   17 ar
    37   16   41 1 
    38   17   21 ar
    39   17   18 1 
    40   18   19 1 
    41   19   20 1 
    42   19   42 1 
    43   19   43 1 
    44   20   21 1 
    45   21   22 ar
    46   22   44 1 
##########                 Name:            E46167878
##########          Protonation:                   93
##########               SMILES:   c1cc(cnc1)O[C@@H]2C[C@@]3(CC[NH+](C3)CCO)OC2
##########            Long Name:   2-[(5R,7R)-7-(3-pyridyloxy)-9-oxa-3-azoniaspiro[4.4]nonan-3-yl]ethanol
##########          FlexRecCode: 1
##########               Number:                  449
##########   Ligand Source File: /raidb/db2/rgc/leads-emolecules-300/leads-lt300-emolecules-1d-0000010.db2.gz
##########           GlobalRank: 2072
##########                 Rank:                    1
##########               Setnum:                  261
##########             Matchnum:                 2642
##########                Cloud:                    1
##########        Electrostatic:           -24.403477
##########        Van der Waals:           -21.695599
##########  Ligand Polar Desolv:             5.222718
########## Ligand Apolar Desolv:            -0.637909
##########      Internal Energy:             0.000000
##########      Receptor Energy: 0.0
########## Receptor Desolvation:             0.000000
########## Receptor Hydrophobic:             0.000000
##########         Total Energy: -41.51
##########        Ligand Charge:             1.000000
##########            Arbitrary:    +999.9990
##########     heavy atom count:   19
##########           pose count:    1
##########        Ligand Energy:             0.000000
# num electro vdwattr vdwrepu polsolv apolsol rdesolv rhydroe totalscore fullpol fullapo
#   1    8.13   -3.33    3.10   -5.24    0.52    0.00    0.00       3.19  -13.90    1.37
#   2   -0.49   -0.78    0.18    0.29   -0.04    0.00    0.00      -0.84    0.98   -0.14
#   3    0.05   -0.56    0.06    0.08   -0.10    0.00    0.00      -0.48    0.28   -0.36
#   4    8.03   -1.30    0.81   -3.21    0.14    0.00    0.00       4.46  -10.55    0.45
#   5  -12.26   -0.09    0.02    3.99    0.14    0.00    0.00      -8.19   15.83    0.56
#   6   -0.22   -1.38    0.56    0.30   -0.14    0.00    0.00      -0.87    0.75   -0.36
#   7    2.77   -0.91    0.11   -1.46   -0.11    0.00    0.00       0.39   -3.45   -0.25
#   8   -1.07   -0.56    0.02    0.65   -0.02    0.00    0.00      -0.98    1.80   -0.06
#   9    1.03   -0.66    0.09   -0.89   -0.08    0.00    0.00      -0.51   -2.73   -0.25
#  10   -0.13   -0.81    0.09    0.12   -0.05    0.00    0.00      -0.77    0.30   -0.12
#  11   -0.06   -1.43    0.29    0.22   -0.06    0.00    0.00      -1.05    0.49   -0.14
#  12    3.04   -1.25    0.12   -2.76    0.57    0.00    0.00      -0.28   -6.85    1.41
#  13   -0.06   -1.37    0.22   -1.60    0.38    0.00    0.00      -2.42   -3.67    0.88
#  14    0.14   -1.76    0.44    0.40   -0.15    0.00    0.00      -0.94    0.80   -0.31
#  15    0.19   -2.63    0.78    0.05   -0.55    0.00    0.00      -2.16    0.09   -0.97
#  16   -2.47   -4.05    1.95   -1.18    1.31    0.00    0.00      -4.45   -1.83    2.03
#  17    0.19   -2.84    0.66    0.00   -0.64    0.00    0.00      -2.64    0.00   -0.98
#  18   -0.64   -1.87    0.33   -0.68   -0.29    0.00    0.00      -3.14   -1.13   -0.48
#  19   -0.79   -1.61    0.37   -0.90   -0.22    0.00    0.00      -3.16   -1.67   -0.41
#  20    0.34   -0.49    0.03   -0.09   -0.12    0.00    0.00      -0.32   -0.32   -0.45
#  21  -10.15   -0.08    0.01    3.34    0.43    0.00    0.00      -6.45    9.54    1.24
#  22   -0.55   -0.34    0.18    0.71   -0.07    0.00    0.00      -0.07    2.97   -0.28
#  23   -0.57   -0.12    0.00    0.16   -0.03    0.00    0.00      -0.55    1.43   -0.28
#  24   -0.95   -0.09    0.00    0.54   -0.03    0.00    0.00      -0.52    5.89   -0.28
#  25   -1.83   -0.26    0.08    0.54   -0.06    0.00    0.00      -1.53    2.64   -0.27
#  26   -3.46   -0.36    0.08    0.73   -0.08    0.00    0.00      -3.08    2.20   -0.23
#  27   -4.91   -1.29    2.59    1.89   -0.12    0.00    0.00      -1.83    4.41   -0.27
#  28   -2.14   -0.24    0.02    0.51   -0.09    0.00    0.00      -1.94    1.58   -0.28
#  29   -2.51   -0.48    0.16    1.56   -0.11    0.00    0.00      -1.37    3.92   -0.27
#  30   -0.92   -0.42    0.27    0.66   -0.07    0.00    0.00      -0.48    2.53   -0.26
#  31   -0.67   -0.15    0.01    0.43   -0.04    0.00    0.00      -0.43    2.96   -0.25
#  32   -0.14   -0.25    0.05    0.35   -0.06    0.00    0.00      -0.05    1.38   -0.23
#  33    0.05   -0.84    0.86    0.59   -0.13    0.00    0.00       0.51    1.20   -0.27
#  34   -0.26   -0.85    0.55    0.67   -0.12    0.00    0.00      -0.02    1.56   -0.28
#  35   -0.09   -0.66    0.30    0.60   -0.13    0.00    0.00       0.03    1.27   -0.28
#  36   -0.29   -1.01    0.82    0.77   -0.18    0.00    0.00       0.11    1.19   -0.28
#  37    1.00   -0.46    0.17    0.91   -0.12    0.00    0.00       1.51    2.12   -0.28
#  38    1.03   -0.29    0.04    0.83   -0.06    0.00    0.00       1.55    2.60   -0.20
#  39   -1.58   -0.12    0.01    0.78   -0.03    0.00    0.00      -0.95    6.32   -0.25
#  40   -1.18   -0.15    0.01    0.58   -0.04    0.00    0.00      -0.78    4.09   -0.26
@<TRIPOS>MOLECULE
E46167878
   40    42     0     0     0
SMALL
USER_CHARGES


@<TRIPOS>ATOM
      1 O1         23.7808   22.6132   58.9211 O.3       1            -0.5777
      2 C1         25.0904   22.4661   59.4740 C.3       1             0.0487
      3 C2         25.0478   21.4595   60.6254 C.3       1            -0.0039
      4 N1         24.5795   20.1609   60.1235 N.4       1            -0.3859
      5 H1         24.9860   19.9771   59.2185 H         1             0.4244
      6 C3         23.1072   20.1674   60.0178 C.3       1             0.0082
      7 C4         22.7224   18.7055   60.3117 C.3       1            -0.1406
      8 C5         23.6426   18.4446   61.5113 C.3       1             0.0891
      9 C6         23.8115   16.9392   61.7542 C.3       1            -0.1387
     10 C7         22.7621   16.7237   62.8656 C.3       1             0.0502
     11 C8         23.0191   17.9905   63.7005 C.3       1             0.0205
     12 O2         23.1260   19.0212   62.7094 O.3       1            -0.3400
     13 O3         23.0340   15.5393   63.6173 O.3       1            -0.2919
     14 C9         22.0747   14.5766   63.6206 C.ar      1             0.0647
     15 C10        22.4202   13.2390   63.7494 C.ar      1             0.0846
     16 N2         21.4932   12.3021   63.7530 N.ar      1            -0.4433
     17 C11        20.2121   12.5922   63.6357 C.ar      1             0.0715
     18 C12        19.7903   13.9016   63.5033 C.ar      1            -0.1291
     19 C13        20.7317   14.9186   63.5005 C.ar      1            -0.1643
     20 C14        24.9606   19.0935   61.0682 C.3       1            -0.0273
     21 H2         23.1207   22.9298   59.5527 H         1             0.4056
     22 H3         25.7721   22.1074   58.7028 H         1             0.0708
     23 H4         25.4378   23.4297   59.8463 H         1             0.0951
     24 H5         26.0466   21.3474   61.0472 H         1             0.1413
     25 H6         24.3660   21.8184   61.3966 H         1             0.1378
     26 H7         22.6714   20.8364   60.7599 H         1             0.1415
     27 H8         22.7951   20.4527   59.0132 H         1             0.1381
     28 H9         21.6719   18.6182   60.5890 H         1             0.1264
     29 H10        22.9664   18.0532   59.4733 H         1             0.1126
     30 H11        23.5651   16.3647   60.8613 H         1             0.1097
     31 H12        24.8158   16.7064   62.1084 H         1             0.1069
     32 H13        21.7502   16.7123   62.4605 H         1             0.1018
     33 H14        22.1818   18.1862   64.3704 H         1             0.1134
     34 H15        23.9486   17.8991   64.2625 H         1             0.0846
     35 H16        23.4598   12.9627   63.8474 H         1             0.1653
     36 H17        19.4826   11.7957   63.6428 H         1             0.1649
     37 H18        18.7391   14.1301   63.4075 H         1             0.1435
     38 H19        20.4304   15.9511   63.4030 H         1             0.1384
     39 H20        25.5949   18.3596   60.5710 H         1             0.1440
     40 H21        25.4790   19.5189   61.9275 H         1             0.1394
@<TRIPOS>BOND
     1    1    2 1 
     2    1   21 1 
     3    2    3 1 
     4    2   22 1 
     5    2   23 1 
     6    3    4 1 
     7    3   24 1 
     8    3   25 1 
     9    4    5 1 
    10    4   20 1 
    11    4    6 1 
    12    6    7 1 
    13    6   26 1 
    14    6   27 1 
    15    7    8 1 
    16    7   28 1 
    17    7   29 1 
    18    8   12 1 
    19    8    9 1 
    20    8   20 1 
    21    9   10 1 
    22    9   30 1 
    23    9   31 1 
    24   10   11 1 
    25   10   13 1 
    26   10   32 1 
    27   11   12 1 
    28   11   33 1 
    29   11   34 1 
    30   13   14 1 
    31   14   19 ar
    32   14   15 ar
    33   15   16 ar
    34   15   35 1 
    35   16   17 ar
    36   17   18 ar
    37   17   36 1 
    38   18   19 ar
    39   18   37 1 
    40   19   38 1 
    41   20   39 1 
    42   20   40 1 
##########                 Name:            E36568072
##########          Protonation:                   81
##########               SMILES:   CC[C@H]1CN(CC[NH2+]1)C(=O)c2ccc3c(c2)OCO3
##########            Long Name:   1,3-benzodioxol-5-yl-[(3S)-3-ethylpiperazin-4-ium-1-yl]methanone
##########          FlexRecCode: 1
##########               Number:                  445
##########   Ligand Source File: /raidb/db2/rgc/leads-emolecules-300/leads-lt300-emolecules-1c-0000106.db2.gz
##########           GlobalRank: 2084
##########                 Rank:                    1
##########               Setnum:                    8
##########             Matchnum:                  832
##########                Cloud:                    1
##########        Electrostatic:           -25.087378
##########        Van der Waals:           -25.172081
##########  Ligand Polar Desolv:             9.963512
########## Ligand Apolar Desolv:            -1.199322
##########      Internal Energy:             0.000000
##########      Receptor Energy: 0.0
########## Receptor Desolvation:             0.000000
########## Receptor Hydrophobic:             0.000000
##########         Total Energy: -41.5
##########        Ligand Charge:             1.000000
##########            Arbitrary:    +999.9990
##########     heavy atom count:   19
##########           pose count:    1
##########        Ligand Energy:             0.000000
# num electro vdwattr vdwrepu polsolv apolsol rdesolv rhydroe totalscore fullpol fullapo
#   1    1.31   -0.52    0.04   -1.30   -0.05    0.00    0.00      -0.52   -4.78   -0.20
#   2    1.40   -0.51    0.03   -1.04   -0.07    0.00    0.00      -0.19   -3.71   -0.24
#   3   -0.21   -0.93    0.19    0.60   -0.08    0.00    0.00      -0.44    1.69   -0.23
#   4   -0.91   -0.82    0.15    0.56   -0.13    0.00    0.00      -1.15    1.45   -0.34
#   5    5.52   -1.09    0.06   -5.25    0.80    0.00    0.00       0.04  -13.19    2.01
#   6   -1.21   -1.32    0.51    0.64   -0.19    0.00    0.00      -1.58    1.60   -0.48
#   7    0.29   -0.64    0.06    0.20   -0.15    0.00    0.00      -0.25    0.63   -0.48
#   8   11.76   -1.53    1.03   -5.74    0.25    0.00    0.00       5.76  -16.74    0.73
#   9  -12.04   -0.06    0.01    4.45    0.14    0.00    0.00      -7.50   18.02    0.56
#  10  -12.47   -0.04    0.00    5.91    0.15    0.00    0.00      -6.45   17.59    0.45
#  11   -1.64   -1.83    0.32    3.53   -0.27    0.00    0.00       0.11    7.94   -0.61
#  12    0.70   -4.10    1.83   -2.42    0.21    0.00    0.00      -3.77   -4.68    0.41
#  13   -0.03   -1.62    0.30   -0.67   -0.15    0.00    0.00      -2.17   -1.57   -0.35
#  14    0.08   -1.80    0.52   -0.21   -0.15    0.00    0.00      -1.56   -0.51   -0.35
#  15    0.08   -2.15    0.74   -0.62   -0.23    0.00    0.00      -2.18   -1.29   -0.47
#  16    0.15   -2.18    0.54    0.00   -0.18    0.00    0.00      -1.68    0.00   -0.33
#  17   -1.76   -3.49    1.69   -1.30    0.32    0.00    0.00      -4.54   -2.04    0.50
#  18    0.61   -2.10    0.54    0.88    0.01    0.00    0.00      -0.06    1.33    0.02
#  19   -1.35   -1.49    0.16   -0.96    0.32    0.00    0.00      -3.31   -1.57    0.52
#  20    0.14   -1.69    0.38   -0.17   -0.19    0.00    0.00      -1.51   -0.29   -0.33
#  21   -0.20   -1.70    0.42   -0.32   -0.20    0.00    0.00      -2.00   -0.72   -0.45
#  22   -0.19   -0.08    0.00    0.25   -0.02    0.00    0.00      -0.04    3.31   -0.22
#  23   -0.61   -0.31    0.06    0.12   -0.08    0.00    0.00      -0.82    0.42   -0.28
#  24   -0.70   -0.14    0.01    0.13   -0.04    0.00    0.00      -0.74    0.97   -0.28
#  25   -0.80   -0.16    0.01    0.36   -0.05    0.00    0.00      -0.64    2.03   -0.28
#  26   -0.79   -0.14    0.01    0.52   -0.03    0.00    0.00      -0.44    4.17   -0.28
#  27   -2.93   -0.67    0.52    1.55   -0.11    0.00    0.00      -1.65    3.99   -0.28
#  28   -2.06   -0.28    0.03    0.85   -0.05    0.00    0.00      -1.50    2.63   -0.16
#  29   -0.78   -0.40    0.29    1.35   -0.07    0.00    0.00       0.39    5.38   -0.28
#  30   -2.62   -0.56    0.38    0.37   -0.08    0.00    0.00      -2.51    1.07   -0.24
#  31   -1.01   -0.92    0.75    1.59   -0.11    0.00    0.00       0.30    4.10   -0.28
#  32   -1.98   -0.19    0.02    0.72   -0.05    0.00    0.00      -1.49    3.67   -0.28
#  33   -1.45   -0.14    0.01    1.04   -0.04    0.00    0.00      -0.59    7.23   -0.28
#  34   -0.38   -0.35    0.09    1.36   -0.06    0.00    0.00       0.66    5.16   -0.24
#  35   -0.51   -0.50    0.19    1.13   -0.11    0.00    0.00       0.20    2.89   -0.28
#  36    0.39   -0.79    0.40    1.07   -0.18    0.00    0.00       0.89    1.70   -0.28
#  37   -0.22   -1.13    1.17    0.58   -0.18    0.00    0.00       0.22    0.89   -0.28
#  38    1.35   -0.38    0.10    0.22   -0.09    0.00    0.00       1.20    0.67   -0.28
@<TRIPOS>MOLECULE
E36568072
   38    40     0     0     0
SMALL
USER_CHARGES


@<TRIPOS>ATOM
      1 C1         26.4604   17.9086   59.9496 C.3       1            -0.1732
      2 C2         25.2620   17.5492   60.8305 C.3       1            -0.1467
      3 C3         23.9759   18.0514   60.1714 C.3       1             0.0127
      4 C4         22.7760   17.6932   61.0538 C.3       1             0.0773
      5 N1         22.9070   18.4428   62.3116 N.am      1            -0.6295
      6 C5         23.1152   19.8962   62.2426 C.3       1             0.0879
      7 C6         24.2992   20.1530   61.3053 C.3       1            -0.0197
      8 N2         24.0449   19.5093   60.0102 N.4       1            -0.5055
      9 H1         24.7906   19.7396   59.3707 H         1             0.4270
     10 H2         23.1702   19.8458   59.6362 H         1             0.4309
     11 C7         22.8373   17.8119   63.5006 C.2       1             0.5807
     12 O1         22.9475   18.4454   64.5324 O.2       1            -0.4956
     13 C8         22.6272   16.3516   63.5499 C.ar      1            -0.1385
     14 C9         23.7239   15.4864   63.5577 C.ar      1            -0.0858
     15 C10        23.5267   14.1232   63.6038 C.ar      1            -0.1036
     16 C11        22.2398   13.6063   63.6429 C.ar      1             0.0700
     17 O2         21.7692   12.3300   63.6915 O.3       1            -0.2996
     18 C12        20.4010   12.3822   63.2608 C.3       1             0.2112
     19 O3         20.0133   13.6993   63.6797 O.3       1            -0.3008
     20 C13        21.1395   14.4657   63.6358 C.ar      1             0.0368
     21 C14        21.3305   15.8318   63.5950 C.ar      1            -0.0488
     22 H3         27.3766   17.5508   60.4192 H         1             0.0520
     23 H4         26.3461   17.4403   58.9721 H         1             0.0869
     24 H5         26.5118   18.9909   59.8302 H         1             0.0731
     25 H6         25.2105   16.4671   60.9500 H         1             0.1166
     26 H7         25.3761   18.0178   61.8079 H         1             0.0930
     27 H8         23.8611   17.5826   59.1941 H         1             0.1451
     28 H9         21.8508   17.9748   60.5510 H         1             0.1400
     29 H10        22.7762   16.6229   61.2603 H         1             0.1025
     30 H11        22.2209   20.3788   61.8481 H         1             0.1386
     31 H12        23.3398   20.2846   63.2360 H         1             0.0993
     32 H13        24.4219   21.2263   61.1600 H         1             0.1362
     33 H14        25.2070   19.7394   61.7447 H         1             0.1498
     34 H15        24.7269   15.8859   63.5270 H         1             0.1451
     35 H16        24.3758   13.4558   63.6093 H         1             0.1497
     36 H17        20.3288   12.2802   62.1779 H         1             0.1430
     37 H18        19.8043   11.6214   63.7641 H         1             0.0958
     38 H19        20.4801   16.4975   63.5938 H         1             0.1463
@<TRIPOS>BOND
     1    1    2 1 
     2    1   22 1 
     3    1   23 1 
     4    1   24 1 
     5    2    3 1 
     6    2   25 1 
     7    2   26 1 
     8    3    8 1 
     9    3    4 1 
    10    3   27 1 
    11    4    5 1 
    12    4   28 1 
    13    4   29 1 
    14    5    6 1 
    15    5   11 am
    16    6    7 1 
    17    6   30 1 
    18    6   31 1 
    19    7    8 1 
    20    7   32 1 
    21    7   33 1 
    22    8    9 1 
    23    8   10 1 
    24   11   12 2 
    25   11   13 1 
    26   13   21 ar
    27   13   14 ar
    28   14   15 ar
    29   14   34 1 
    30   15   16 ar
    31   15   35 1 
    32   16   20 ar
    33   16   17 1 
    34   17   18 1 
    35   18   19 1 
    36   18   36 1 
    37   18   37 1 
    38   19   20 1 
    39   20   21 ar
    40   21   38 1 
##########                 Name:            E48254024
##########          Protonation:                  100
##########               SMILES:   c1ccc(cc1)COc2cncc(n2)NCc3ccccn3
##########            Long Name:   6-benzyloxy-N-(2-pyridylmethyl)pyrazin-2-amine
##########          FlexRecCode: 1
##########               Number:                  206
##########   Ligand Source File: /raidb/db2/rgc/leads-emolecules-300/leads-emolecules-2e-0000424.db2.gz
##########           GlobalRank: 2115
##########                 Rank:                    1
##########               Setnum:                  136
##########             Matchnum:                  177
##########                Cloud:                    1
##########        Electrostatic:            -5.588215
##########        Van der Waals:           -36.970470
##########  Ligand Polar Desolv:             3.891663
########## Ligand Apolar Desolv:            -2.800478
##########      Internal Energy:             0.000000
##########      Receptor Energy: 0.0
########## Receptor Desolvation:             0.000000
########## Receptor Hydrophobic:             0.000000
##########         Total Energy: -41.47
##########        Ligand Charge:             0.000000
##########            Arbitrary:    +999.9990
##########     heavy atom count:   22
##########           pose count:    1
##########        Ligand Energy:             0.000000
# num electro vdwattr vdwrepu polsolv apolsol rdesolv rhydroe totalscore fullpol fullapo
#   1   -0.31   -1.23    0.24    0.14   -0.17    0.00    0.00      -1.33    0.32   -0.40
#   2    0.47   -1.82    0.47    0.09    0.73    0.00    0.00      -0.06    0.22    1.73
#   3    0.48   -1.79    0.45   -0.49   -0.99    0.00    0.00      -2.35   -1.03   -2.09
#   4   -2.19   -1.62    0.32    1.32    1.45    0.00    0.00      -0.72    2.64    2.90
#   5    1.54   -1.70    0.28   -0.92   -0.39    0.00    0.00      -1.19   -1.55   -0.65
#   6   -2.12   -1.55    0.26    0.88    0.51    0.00    0.00      -2.02    1.50    0.87
#   7    1.53   -1.26    0.22   -0.23   -0.06    0.00    0.00       0.19   -0.41   -0.11
#   8   -1.41   -2.16    0.42    0.23   -0.24    0.00    0.00      -3.16    0.37   -0.39
#   9   -1.42   -2.79    0.85    0.16   -0.27    0.00    0.00      -3.47    0.27   -0.45
#  10   -1.57   -2.83    1.42    0.08   -0.28    0.00    0.00      -3.18    0.13   -0.47
#  11   -1.14   -2.59    1.02    0.03   -0.30    0.00    0.00      -2.99    0.04   -0.47
#  12   -0.85   -3.11    0.90    0.07   -0.31    0.00    0.00      -3.30    0.10   -0.47
#  13   -0.83   -2.55    0.47    0.16   -0.29    0.00    0.00      -3.05    0.24   -0.45
#  14   -0.10   -2.62    0.54    0.14   -0.62    0.00    0.00      -2.66    0.22   -0.97
#  15   -1.91   -4.16    2.23    1.06    1.28    0.00    0.00      -1.50    1.71    2.07
#  16   -0.02   -2.67    0.99    0.06   -0.48    0.00    0.00      -2.12    0.11   -0.91
#  17   -0.71   -1.02    0.07    0.01   -0.27    0.00    0.00      -1.91    0.03   -0.68
#  18    1.10   -1.40    0.32   -0.16   -0.19    0.00    0.00      -0.34   -0.38   -0.45
#  19    1.21   -1.92    0.49   -0.13   -0.23    0.00    0.00      -0.58   -0.26   -0.48
#  20    3.76   -2.21    0.69   -0.18   -0.21    0.00    0.00       1.85   -0.40   -0.48
#  21   -1.79   -1.19    0.19    0.00   -0.33    0.00    0.00      -3.12    0.01   -0.98
#  22    4.98   -0.81    0.03    0.29    0.64    0.00    0.00       5.13    0.89    1.94
#  23    0.17   -0.54    0.25    0.23   -0.11    0.00    0.00       0.01    0.59   -0.27
#  24   -0.26   -0.71    0.36    0.05   -0.11    0.00    0.00      -0.68    0.12   -0.27
#  25   -0.68   -0.03    0.00   -0.10    0.16    0.00    0.00      -0.64   -0.37    0.58
#  26    0.93   -0.61    0.44   -0.10   -0.12    0.00    0.00       0.55   -0.24   -0.28
#  27    1.53   -0.57    0.44   -0.11   -0.12    0.00    0.00       1.18   -0.25   -0.28
#  28    1.59   -0.71    0.25   -0.11   -0.16    0.00    0.00       0.86   -0.19   -0.28
#  29    1.23   -0.58    0.18    0.10   -0.14    0.00    0.00       0.79    0.20   -0.28
#  30    1.17   -0.43    0.07    0.17   -0.14    0.00    0.00       0.84    0.35   -0.28
#  31    0.14   -0.87    0.33    0.15   -0.17    0.00    0.00      -0.43    0.25   -0.28
#  32    0.74   -0.58    0.10   -0.07   -0.16    0.00    0.00       0.03   -0.12   -0.28
#  33    0.13   -0.74    0.25   -0.32   -0.18    0.00    0.00      -0.85   -0.51   -0.28
#  34   -0.57   -0.63    0.38    0.12   -0.10    0.00    0.00      -0.79    0.28   -0.23
#  35   -0.07   -0.30    0.06    0.27   -0.09    0.00    0.00      -0.13    0.85   -0.28
#  36   -2.47   -0.53    0.16    0.49   -0.13    0.00    0.00      -2.49    1.04   -0.28
#  37   -4.71   -1.04    0.93    0.45   -0.14    0.00    0.00      -4.51    0.91   -0.28
#  38   -3.16   -0.29    0.10    0.07   -0.06    0.00    0.00      -3.33    0.36   -0.28
@<TRIPOS>MOLECULE
E48254024
   38    40     0     0     0
SMALL
USER_CHARGES


@<TRIPOS>ATOM
      1 C1         23.1415   17.1479   63.6540 C.3       1             0.1786
      2 N1         23.5502   15.7411   63.6415 N.pl3     1            -0.7066
      3 C2         22.5882   14.7378   63.6414 C.ar      1             0.4022
      4 N2         21.2987   15.0534   63.6471 N.ar      1            -0.5627
      5 C3         20.3845   14.0931   63.6465 C.ar      1             0.3308
      6 O1         19.0656   14.4117   63.6519 O.3       1            -0.2903
      7 C4         18.6960   15.6336   64.2941 C.3       1             0.1131
      8 C5         17.3044   15.5038   64.8578 C.ar      1            -0.1011
      9 C6         16.2106   15.8430   64.0835 C.ar      1            -0.0943
     10 C7         14.9341   15.7239   64.6005 C.ar      1            -0.1229
     11 C8         14.7514   15.2652   65.8917 C.ar      1            -0.1083
     12 C9         15.8451   14.9252   66.6656 C.ar      1            -0.1231
     13 C10        17.1213   15.0401   66.1471 C.ar      1            -0.0946
     14 C11        20.7776   12.7604   63.6399 C.ar      1            -0.0278
     15 N3         22.0611   12.4485   63.6347 N.ar      1            -0.3656
     16 C12        22.9751   13.4012   63.6295 C.ar      1            -0.0543
     17 C13        22.9914   17.6400   62.2376 C.ar      1             0.1017
     18 C14        21.7679   17.5327   61.6032 C.ar      1            -0.1501
     19 C15        21.6405   17.9886   60.3002 C.ar      1            -0.0754
     20 C16        22.7533   18.5373   59.6811 C.ar      1            -0.1615
     21 C17        23.9439   18.6113   60.3786 C.ar      1             0.1008
     22 N4         24.0271   18.1726   61.6196 N.ar      1            -0.4678
     23 H1         22.1891   17.2449   64.1753 H         1             0.0868
     24 H2         23.8983   17.7417   64.1667 H         1             0.0887
     25 H3         24.4922   15.5098   63.6334 H         1             0.4079
     26 H4         19.3966   15.8461   65.1016 H         1             0.0763
     27 H5         18.7198   16.4468   63.5688 H         1             0.0766
     28 H6         16.3533   16.2013   63.0747 H         1             0.1241
     29 H7         14.0797   15.9896   63.9958 H         1             0.1261
     30 H8         13.7542   15.1728   66.2959 H         1             0.1251
     31 H9         15.7023   14.5670   67.6745 H         1             0.1260
     32 H10        17.9757   14.7709   66.7505 H         1             0.1239
     33 H11        20.0327   11.9786   63.6395 H         1             0.1730
     34 H12        24.0238   13.1430   63.6203 H         1             0.1667
     35 H13        20.9221   17.0993   62.1161 H         1             0.1388
     36 H14        20.6970   17.9174   59.7795 H         1             0.1392
     37 H15        22.6904   18.9021   58.6665 H         1             0.1395
     38 H16        24.8152   19.0375   59.9036 H         1             0.1605
@<TRIPOS>BOND
     1    1    2 1 
     2    1   17 1 
     3    1   23 1 
     4    1   24 1 
     5    2    3 1 
     6    2   25 1 
     7    3   16 ar
     8    3    4 ar
     9    4    5 ar
    10    5    6 1 
    11    5   14 ar
    12    6    7 1 
    13    7    8 1 
    14    7   26 1 
    15    7   27 1 
    16    8   13 ar
    17    8    9 ar
    18    9   10 ar
    19    9   28 1 
    20   10   11 ar
    21   10   29 1 
    22   11   12 ar
    23   11   30 1 
    24   12   13 ar
    25   12   31 1 
    26   13   32 1 
    27   14   15 ar
    28   14   33 1 
    29   15   16 ar
    30   16   34 1 
    31   17   22 ar
    32   17   18 ar
    33   18   19 ar
    34   18   35 1 
    35   19   20 ar
    36   19   36 1 
    37   20   21 ar
    38   20   37 1 
    39   21   22 ar
    40   21   38 1 
##########                 Name:            E26268059
##########          Protonation:                   65
##########               SMILES:   C[NH+](C)CCCN/C=C/1\C(=O)NC(=O)N(C1=O)CC=C
##########            Long Name:   ,6-trioxo-hexahydropyrimidin-5-ylidene)methyl]amino]propyl-dimethyl-ammonium
##########          FlexRecCode: 1
##########               Number:                  518
##########   Ligand Source File: /raidb/db2/rgc/leads-emolecules-300/leads-emolecules-3-ay-0000014.db2.gz
##########           GlobalRank: 2115
##########                 Rank:                    1
##########               Setnum:                  434
##########             Matchnum:                 1805
##########                Cloud:                    1
##########        Electrostatic:           -25.675232
##########        Van der Waals:           -25.239639
##########  Ligand Polar Desolv:            10.769134
########## Ligand Apolar Desolv:            -1.325757
##########      Internal Energy:             0.000000
##########      Receptor Energy: 0.0
########## Receptor Desolvation:             0.000000
########## Receptor Hydrophobic:             0.000000
##########         Total Energy: -41.47
##########        Ligand Charge:             1.000000
##########            Arbitrary:    +999.9990
##########     heavy atom count:   20
##########           pose count:    1
##########        Ligand Energy:             0.000000
# num electro vdwattr vdwrepu polsolv apolsol rdesolv rhydroe totalscore fullpol fullapo
#   1    0.96   -1.01    0.24   -0.60   -0.15    0.00    0.00      -0.57   -1.87   -0.47
#   2    7.75   -1.34    0.47   -4.31    0.16    0.00    0.00       2.73  -12.40    0.46
#   3   -7.41   -0.05    0.00    4.37    0.15    0.00    0.00      -2.93   16.17    0.56
#   4    1.23   -1.56    0.59   -0.63   -0.20    0.00    0.00      -0.57   -1.49   -0.48
#   5    0.11   -0.69    0.13    0.13   -0.11    0.00    0.00      -0.43    0.43   -0.35
#   6    2.19   -0.53    0.02   -1.58   -0.07    0.00    0.00       0.03   -4.99   -0.22
#   7   -0.83   -1.09    0.24    0.58   -0.17    0.00    0.00      -1.26    1.64   -0.48
#   8    3.05   -2.00    0.51   -5.10    0.65    0.00    0.00      -2.89  -12.58    1.61
#   9   -0.27   -1.80    0.38    2.86   -0.38    0.00    0.00       0.79    6.40   -0.86
#  10   -0.74   -1.65    0.36   -2.14   -0.18    0.00    0.00      -4.36   -4.92   -0.42
#  11    0.18   -1.86    0.52    2.14   -0.31    0.00    0.00       0.67    4.68   -0.67
#  12    0.60   -1.84    0.55   -2.08    0.15    0.00    0.00      -2.61   -4.94    0.36
#  13   -0.76   -2.27    0.57   -2.06    1.23    0.00    0.00      -3.30   -3.84    2.29
#  14    2.45   -2.17    0.45    1.20   -1.27    0.00    0.00       0.65    1.98   -2.10
#  15   -2.52   -3.52    1.22    0.25    0.26    0.00    0.00      -4.30    0.38    0.40
#  16   -2.60   -1.64    0.26   -1.19    1.01    0.00    0.00      -4.16   -2.02    1.71
#  17    0.80   -1.68    0.84    0.27   -0.25    0.00    0.00      -0.01    0.45   -0.42
#  18   -0.95   -3.33    2.61   -0.42   -0.27    0.00    0.00      -2.36   -0.70   -0.45
#  19   -1.20   -3.07    2.01   -0.44   -0.21    0.00    0.00      -2.90   -0.70   -0.33
#  20    3.41   -1.63    0.34    1.47   -0.31    0.00    0.00       3.28    3.12   -0.65
#  21   -6.65   -2.03    0.77   -1.14    0.19    0.00    0.00      -8.85   -2.32    0.39
#  22   -2.30   -0.52    0.26    1.20   -0.09    0.00    0.00      -1.45    3.79   -0.28
#  23   -2.61   -0.43    0.18    1.05   -0.07    0.00    0.00      -1.88    3.67   -0.23
#  24   -1.17   -0.14    0.01    0.58   -0.04    0.00    0.00      -0.76    3.96   -0.28
#  25   -2.37   -0.26    0.02    1.20   -0.09    0.00    0.00      -1.50    3.91   -0.28
#  26   -3.68   -0.79    0.61    1.86   -0.12    0.00    0.00      -2.12    4.31   -0.28
#  27   -4.04   -0.95    1.52    1.57   -0.12    0.00    0.00      -2.02    3.78   -0.28
#  28   -3.89   -0.73    1.50    1.43   -0.07    0.00    0.00      -1.76    5.69   -0.28
#  29   -1.53   -0.11    0.01    0.56   -0.03    0.00    0.00      -1.11    5.37   -0.28
#  30   -1.46   -0.17    0.01    0.60   -0.04    0.00    0.00      -1.06    3.05   -0.21
#  31   -1.10   -0.13    0.00    0.39   -0.04    0.00    0.00      -0.88    2.86   -0.28
#  32   -0.70   -0.57    0.46    0.92   -0.08    0.00    0.00       0.03    3.40   -0.28
#  33   -0.80   -0.47    0.11    1.27   -0.10    0.00    0.00       0.02    3.66   -0.28
#  34   -1.74   -0.05    0.00    2.35    0.11    0.00    0.00       0.69    7.37    0.36
#  35   -0.01   -0.48    0.20    1.65   -0.11    0.00    0.00       1.26    4.20   -0.27
#  36   -0.25   -0.05    0.00    1.43    0.28    0.00    0.00       1.41    3.00    0.59
#  37    0.87   -0.55    0.25    0.22   -0.10    0.00    0.00       0.69    0.52   -0.24
#  38    0.42   -0.76    0.64    0.11   -0.14    0.00    0.00       0.27    0.19   -0.25
#  39    0.17   -0.99    1.53    0.08   -0.15    0.00    0.00       0.65    0.15   -0.28
#  40    0.44   -0.56    0.16    0.40   -0.16    0.00    0.00       0.27    0.71   -0.28
#  41    1.27   -0.45    0.14    0.31   -0.12    0.00    0.00       1.15    0.69   -0.27
@<TRIPOS>MOLECULE
E26268059
   41    41     0     0     0
SMALL
USER_CHARGES


@<TRIPOS>ATOM
      1 C1         23.9733   22.3275   60.3100 C.3       1            -0.0547
      2 N1         23.5931   21.0718   60.9709 N.4       1            -0.3870
      3 H1         23.6208   21.1967   61.9717 H         1             0.4288
      4 C2         22.2334   20.6955   60.5617 C.3       1            -0.0477
      5 C3         24.5323   20.0108   60.5836 C.3       1            -0.0064
      6 C4         24.1364   18.7030   61.2718 C.3       1            -0.1676
      7 C5         24.1785   18.8921   62.7894 C.3       1             0.1009
      8 N2         23.7995   17.6397   63.4483 N.pl3     1            -0.6792
      9 C6         22.4988   17.3037   63.5599 C.2       1             0.3386
     10 C7         22.1280   15.9720   63.5804 C.2       1            -0.4184
     11 C8         23.1314   14.8956   63.6618 C.2       1             0.5885
     12 O1         24.3196   15.1516   63.7133 O.2       1            -0.5356
     13 N3         22.6966   13.6186   63.6779 N.am      1            -0.6619
     14 C9         21.3905   13.3225   63.6217 C.2       1             0.7104
     15 O2         21.0647   12.1518   63.6397 O.2       1            -0.5226
     16 N4         20.4248   14.2490   63.5470 N.am      1            -0.5553
     17 C10        19.0249   13.8207   63.4910 C.3       1             0.1393
     18 C11        18.4753   13.7156   64.8901 C.2       1            -0.1859
     19 C12        17.4490   14.4470   65.2475 C.2       1            -0.1523
     20 C13        20.7120   15.5669   63.5281 C.2       1             0.5861
     21 O3         19.8262   16.3985   63.4652 O.2       1            -0.5020
     22 H2         23.9435   22.1927   59.2289 H         1             0.1271
     23 H3         23.2763   23.1148   60.5974 H         1             0.1240
     24 H4         24.9822   22.6070   60.6136 H         1             0.1244
     25 H5         21.9512   19.7638   61.0519 H         1             0.1235
     26 H6         21.5365   21.4828   60.8492 H         1             0.1250
     27 H7         22.2034   20.5607   59.4805 H         1             0.1266
     28 H8         24.5024   19.8759   59.5023 H         1             0.1371
     29 H9         25.5414   20.2901   60.8870 H         1             0.1359
     30 H10        23.1275   18.4235   60.9682 H         1             0.0993
     31 H11        24.8335   17.9157   60.9842 H         1             0.1005
     32 H12        25.1875   19.1715   63.0929 H         1             0.0916
     33 H13        23.4816   19.6793   63.0769 H         1             0.0919
     34 H14        24.4843   17.0522   63.8042 H         1             0.4251
     35 H15        21.7462   18.0749   63.6334 H         1             0.1792
     36 H16        23.3441   12.8983   63.7312 H         1             0.4349
     37 H17        18.4442   14.5500   62.9263 H         1             0.1062
     38 H18        18.9617   12.8487   63.0017 H         1             0.1104
     39 H19        18.9276   13.0371   65.5985 H         1             0.1133
     40 H20        17.0552   14.3718   66.2502 H         1             0.1046
     41 H21        16.9967   15.1256   64.5392 H         1             0.1032
@<TRIPOS>BOND
     1    1    2 1 
     2    1   22 1 
     3    1   23 1 
     4    1   24 1 
     5    2    3 1 
     6    2    4 1 
     7    2    5 1 
     8    4   25 1 
     9    4   26 1 
    10    4   27 1 
    11    5    6 1 
    12    5   28 1 
    13    5   29 1 
    14    6    7 1 
    15    6   30 1 
    16    6   31 1 
    17    7    8 1 
    18    7   32 1 
    19    7   33 1 
    20    8    9 1 
    21    8   34 1 
    22    9   10 2 
    23    9   35 1 
    24   10   20 1 
    25   10   11 1 
    26   11   12 2 
    27   11   13 am
    28   13   14 am
    29   13   36 1 
    30   14   15 2 
    31   14   16 am
    32   16   17 1 
    33   16   20 am
    34   17   18 1 
    35   17   37 1 
    36   17   38 1 
    37   18   19 2 
    38   18   39 1 
    39   19   40 1 
    40   19   41 1 
    41   20   21 2 
##########                 Name:            E46490277
##########          Protonation:                   65
##########               SMILES:   C[NH+](C)CCCN/C=C/1\C(=O)NC(=O)N(C1=O)CC=C
##########            Long Name:   ,6-trioxo-hexahydropyrimidin-5-ylidene)methyl]amino]propyl-dimethyl-ammonium
##########          FlexRecCode: 1
##########               Number:                  411
##########   Ligand Source File: /raidb/db2/rgc/leads-emolecules-300/leads-lt300-emolecules-1j-0000097.db2.gz
##########           GlobalRank: 2115
##########                 Rank:                    1
##########               Setnum:                  434
##########             Matchnum:                 1805
##########                Cloud:                    1
##########        Electrostatic:           -25.675217
##########        Van der Waals:           -25.239639
##########  Ligand Polar Desolv:            10.769132
########## Ligand Apolar Desolv:            -1.325757
##########      Internal Energy:             0.000000
##########      Receptor Energy: 0.0
########## Receptor Desolvation:             0.000000
########## Receptor Hydrophobic:             0.000000
##########         Total Energy: -41.47
##########        Ligand Charge:             1.000000
##########            Arbitrary:    +999.9990
##########     heavy atom count:   20
##########           pose count:    1
##########        Ligand Energy:             0.000000
# num electro vdwattr vdwrepu polsolv apolsol rdesolv rhydroe totalscore fullpol fullapo
#   1    0.96   -1.01    0.24   -0.60   -0.15    0.00    0.00      -0.57   -1.87   -0.47
#   2    7.75   -1.34    0.47   -4.31    0.16    0.00    0.00       2.73  -12.40    0.46
#   3   -7.41   -0.05    0.00    4.37    0.15    0.00    0.00      -2.93   16.17    0.56
#   4    1.23   -1.56    0.59   -0.63   -0.20    0.00    0.00      -0.57   -1.49   -0.48
#   5    0.11   -0.69    0.13    0.13   -0.11    0.00    0.00      -0.43    0.43   -0.35
#   6    2.19   -0.53    0.02   -1.58   -0.07    0.00    0.00       0.03   -4.99   -0.22
#   7   -0.83   -1.09    0.24    0.58   -0.17    0.00    0.00      -1.26    1.64   -0.48
#   8    3.05   -2.00    0.51   -5.10    0.65    0.00    0.00      -2.89  -12.58    1.61
#   9   -0.27   -1.80    0.38    2.86   -0.38    0.00    0.00       0.79    6.40   -0.86
#  10   -0.74   -1.65    0.36   -2.14   -0.18    0.00    0.00      -4.36   -4.92   -0.42
#  11    0.18   -1.86    0.52    2.14   -0.31    0.00    0.00       0.67    4.68   -0.67
#  12    0.60   -1.84    0.55   -2.08    0.15    0.00    0.00      -2.61   -4.94    0.36
#  13   -0.76   -2.27    0.57   -2.06    1.23    0.00    0.00      -3.30   -3.84    2.29
#  14    2.45   -2.17    0.45    1.20   -1.27    0.00    0.00       0.65    1.98   -2.10
#  15   -2.52   -3.52    1.22    0.25    0.26    0.00    0.00      -4.30    0.38    0.40
#  16   -2.60   -1.64    0.26   -1.19    1.01    0.00    0.00      -4.16   -2.02    1.71
#  17    0.80   -1.68    0.84    0.27   -0.25    0.00    0.00      -0.01    0.45   -0.42
#  18   -0.95   -3.33    2.61   -0.42   -0.27    0.00    0.00      -2.36   -0.70   -0.45
#  19   -1.20   -3.07    2.01   -0.44   -0.21    0.00    0.00      -2.90   -0.70   -0.33
#  20    3.41   -1.63    0.34    1.47   -0.31    0.00    0.00       3.28    3.12   -0.65
#  21   -6.65   -2.03    0.77   -1.14    0.19    0.00    0.00      -8.85   -2.32    0.39
#  22   -2.30   -0.52    0.26    1.20   -0.09    0.00    0.00      -1.45    3.79   -0.28
#  23   -2.61   -0.43    0.18    1.05   -0.07    0.00    0.00      -1.88    3.67   -0.23
#  24   -1.17   -0.14    0.01    0.58   -0.04    0.00    0.00      -0.76    3.96   -0.28
#  25   -2.37   -0.26    0.02    1.20   -0.09    0.00    0.00      -1.50    3.91   -0.28
#  26   -3.68   -0.79    0.61    1.86   -0.12    0.00    0.00      -2.12    4.31   -0.28
#  27   -4.04   -0.95    1.52    1.57   -0.12    0.00    0.00      -2.02    3.78   -0.28
#  28   -3.89   -0.73    1.50    1.43   -0.07    0.00    0.00      -1.76    5.69   -0.28
#  29   -1.53   -0.11    0.01    0.56   -0.03    0.00    0.00      -1.11    5.37   -0.28
#  30   -1.46   -0.17    0.01    0.60   -0.04    0.00    0.00      -1.06    3.05   -0.21
#  31   -1.10   -0.13    0.00    0.39   -0.04    0.00    0.00      -0.88    2.86   -0.28
#  32   -0.70   -0.57    0.46    0.92   -0.08    0.00    0.00       0.03    3.40   -0.28
#  33   -0.80   -0.47    0.11    1.27   -0.10    0.00    0.00       0.02    3.66   -0.28
#  34   -1.74   -0.05    0.00    2.35    0.11    0.00    0.00       0.69    7.37    0.36
#  35   -0.01   -0.48    0.20    1.65   -0.11    0.00    0.00       1.26    4.20   -0.27
#  36   -0.25   -0.05    0.00    1.43    0.28    0.00    0.00       1.41    3.00    0.59
#  37    0.87   -0.55    0.25    0.22   -0.10    0.00    0.00       0.69    0.52   -0.24
#  38    0.42   -0.76    0.64    0.11   -0.14    0.00    0.00       0.27    0.19   -0.25
#  39    0.17   -0.99    1.53    0.08   -0.15    0.00    0.00       0.65    0.15   -0.28
#  40    0.44   -0.56    0.16    0.40   -0.16    0.00    0.00       0.27    0.71   -0.28
#  41    1.27   -0.45    0.14    0.31   -0.12    0.00    0.00       1.15    0.69   -0.27
@<TRIPOS>MOLECULE
E46490277
   41    41     0     0     0
SMALL
USER_CHARGES


@<TRIPOS>ATOM
      1 C1         23.9733   22.3275   60.3100 C.3       1            -0.0547
      2 N1         23.5931   21.0718   60.9709 N.4       1            -0.3870
      3 H1         23.6208   21.1967   61.9717 H         1             0.4288
      4 C2         22.2334   20.6955   60.5617 C.3       1            -0.0477
      5 C3         24.5323   20.0108   60.5836 C.3       1            -0.0064
      6 C4         24.1364   18.7030   61.2718 C.3       1            -0.1676
      7 C5         24.1785   18.8921   62.7894 C.3       1             0.1009
      8 N2         23.7995   17.6397   63.4483 N.pl3     1            -0.6792
      9 C6         22.4988   17.3037   63.5599 C.2       1             0.3386
     10 C7         22.1280   15.9720   63.5804 C.2       1            -0.4184
     11 C8         23.1314   14.8956   63.6618 C.2       1             0.5885
     12 O1         24.3196   15.1516   63.7133 O.2       1            -0.5356
     13 N3         22.6966   13.6186   63.6779 N.am      1            -0.6619
     14 C9         21.3905   13.3225   63.6217 C.2       1             0.7104
     15 O2         21.0647   12.1518   63.6397 O.2       1            -0.5226
     16 N4         20.4248   14.2490   63.5470 N.am      1            -0.5553
     17 C10        19.0249   13.8207   63.4910 C.3       1             0.1393
     18 C11        18.4753   13.7156   64.8901 C.2       1            -0.1859
     19 C12        17.4490   14.4470   65.2475 C.2       1            -0.1523
     20 C13        20.7120   15.5669   63.5281 C.2       1             0.5861
     21 O3         19.8262   16.3985   63.4652 O.2       1            -0.5020
     22 H2         23.9435   22.1927   59.2289 H         1             0.1271
     23 H3         23.2763   23.1148   60.5974 H         1             0.1240
     24 H4         24.9822   22.6070   60.6136 H         1             0.1244
     25 H5         21.9512   19.7638   61.0519 H         1             0.1235
     26 H6         21.5365   21.4828   60.8492 H         1             0.1250
     27 H7         22.2034   20.5607   59.4805 H         1             0.1266
     28 H8         24.5024   19.8759   59.5023 H         1             0.1371
     29 H9         25.5414   20.2901   60.8870 H         1             0.1359
     30 H10        23.1275   18.4235   60.9682 H         1             0.0993
     31 H11        24.8335   17.9157   60.9842 H         1             0.1005
     32 H12        25.1875   19.1715   63.0929 H         1             0.0916
     33 H13        23.4816   19.6793   63.0769 H         1             0.0919
     34 H14        24.4843   17.0522   63.8042 H         1             0.4251
     35 H15        21.7462   18.0749   63.6334 H         1             0.1792
     36 H16        23.3441   12.8983   63.7312 H         1             0.4349
     37 H17        18.4442   14.5500   62.9263 H         1             0.1062
     38 H18        18.9617   12.8487   63.0017 H         1             0.1104
     39 H19        18.9276   13.0371   65.5985 H         1             0.1133
     40 H20        17.0552   14.3718   66.2502 H         1             0.1046
     41 H21        16.9967   15.1256   64.5392 H         1             0.1032
@<TRIPOS>BOND
     1    1    2 1 
     2    1   22 1 
     3    1   23 1 
     4    1   24 1 
     5    2    3 1 
     6    2    4 1 
     7    2    5 1 
     8    4   25 1 
     9    4   26 1 
    10    4   27 1 
    11    5    6 1 
    12    5   28 1 
    13    5   29 1 
    14    6    7 1 
    15    6   30 1 
    16    6   31 1 
    17    7    8 1 
    18    7   32 1 
    19    7   33 1 
    20    8    9 1 
    21    8   34 1 
    22    9   10 2 
    23    9   35 1 
    24   10   20 1 
    25   10   11 1 
    26   11   12 2 
    27   11   13 am
    28   13   14 am
    29   13   36 1 
    30   14   15 2 
    31   14   16 am
    32   16   17 1 
    33   16   20 am
    34   17   18 1 
    35   17   37 1 
    36   17   38 1 
    37   18   19 2 
    38   18   39 1 
    39   19   40 1 
    40   19   41 1 
    41   20   21 2 
##########                 Name:            E43593868
##########          Protonation:                   19
##########               SMILES:   c1cc(cnc1)CCCN2C(=O)C3(CC[NH2+]CC3)NC2=O
##########            Long Name:   2-[3-(3-pyridyl)propyl]-2,4-diaza-8-azoniaspiro[4.5]decane-1,3-dione
##########          FlexRecCode: 1
##########               Number:                  475
##########   Ligand Source File: /raidb/db2/rgc/leads-emolecules-300/leads-emolecules-3-ce-0000030.db2.gz
##########           GlobalRank: 2125
##########                 Rank:                    1
##########               Setnum:                   94
##########             Matchnum:                 2478
##########                Cloud:                    1
##########        Electrostatic:           -31.932938
##########        Van der Waals:           -24.459618
##########  Ligand Polar Desolv:            16.442375
########## Ligand Apolar Desolv:            -1.505189
##########      Internal Energy:             0.000000
##########      Receptor Energy: 0.0
########## Receptor Desolvation:             0.000000
########## Receptor Hydrophobic:             0.000000
##########         Total Energy: -41.46
##########        Ligand Charge:             1.000000
##########            Arbitrary:    +999.9990
##########     heavy atom count:   21
##########           pose count:    1
##########        Ligand Energy:             0.000000
# num electro vdwattr vdwrepu polsolv apolsol rdesolv rhydroe totalscore fullpol fullapo
#   1    3.20   -0.88    0.07   -1.27    0.13    0.00    0.00       1.26   -3.95    0.42
#   2   -6.36   -0.77    0.05    2.36   -0.62    0.00    0.00      -5.35    8.33   -2.18
#   3   11.17   -1.01    0.13   -4.19    0.66    0.00    0.00       6.76  -13.75    2.16
#   4   -1.45   -0.58    0.03    1.03   -0.03    0.00    0.00      -1.00    3.13   -0.10
#   5    1.63   -0.72    0.10   -1.19   -0.06    0.00    0.00      -0.24   -4.07   -0.21
#   6    0.06   -0.76    0.12    0.26   -0.14    0.00    0.00      -0.46    0.86   -0.47
#   7   13.40   -2.30    1.50   -6.87    0.34    0.00    0.00       6.06  -18.25    0.89
#   8  -12.38   -0.09    0.02    6.83    0.21    0.00    0.00      -5.41   18.65    0.56
#   9  -13.79   -0.11    0.02    8.11    0.23    0.00    0.00      -5.54   20.36    0.57
#  10    0.11   -1.65    0.84    0.36   -0.20    0.00    0.00      -0.54    0.84   -0.47
#  11    2.42   -0.79    0.07   -1.73   -0.09    0.00    0.00      -0.12   -4.07   -0.21
#  12   -4.23   -1.46    0.35    2.64   -0.20    0.00    0.00      -2.89    7.75   -0.58
#  13    2.19   -3.26    1.59   -2.71    0.18    0.00    0.00      -2.00   -6.25    0.42
#  14    4.15   -1.00    0.15   -2.02    0.48    0.00    0.00       1.76   -7.27    1.74
#  15   -0.53   -1.04    0.36    0.35   -0.13    0.00    0.00      -1.00    1.14   -0.42
#  16    0.37   -0.91    0.13   -0.37   -0.10    0.00    0.00      -0.88   -0.91   -0.24
#  17    0.00   -1.13    0.24   -0.26   -0.10    0.00    0.00      -1.25   -0.61   -0.23
#  18   -0.31   -1.77    0.44   -0.40   -0.18    0.00    0.00      -2.21   -0.80   -0.36
#  19    0.24   -2.64    0.78    0.07   -0.54    0.00    0.00      -2.09    0.12   -0.95
#  20   -2.70   -4.11    2.02   -0.45    1.33    0.00    0.00      -3.91   -0.69    2.05
#  21    0.25   -2.90    0.70    0.06   -0.64    0.00    0.00      -2.53    0.09   -0.98
#  22   -0.83   -1.89    0.34   -0.65   -0.29    0.00    0.00      -3.32   -1.07   -0.48
#  23   -0.35   -1.61    0.36   -0.34   -0.25    0.00    0.00      -2.19   -0.62   -0.46
#  24  -10.00   -0.04    0.00    2.95    0.14    0.00    0.00      -6.95   11.46    0.53
#  25   -1.15   -0.58    0.34    1.09   -0.08    0.00    0.00      -0.38    3.84   -0.28
#  26   -0.84   -0.13    0.01    0.24   -0.04    0.00    0.00      -0.76    1.68   -0.28
#  27   -1.53   -0.15    0.01    1.11   -0.05    0.00    0.00      -0.60    6.91   -0.28
#  28   -2.71   -0.40    0.36    1.11   -0.05    0.00    0.00      -1.70    5.03   -0.25
#  29   -4.26   -0.72    0.62    2.84   -0.11    0.00    0.00      -1.62    7.06   -0.28
#  30   -4.43   -0.85    0.92    2.05   -0.10    0.00    0.00      -2.42    5.08   -0.26
#  31   -1.78   -0.20    0.01    0.47   -0.07    0.00    0.00      -1.57    1.88   -0.28
#  32   -1.70   -0.41    0.11    1.27   -0.09    0.00    0.00      -0.82    3.87   -0.28
#  33   -0.40   -0.16    0.01    0.20   -0.04    0.00    0.00      -0.39    1.26   -0.28
#  34   -0.55   -1.24    2.71    0.24   -0.09    0.00    0.00       1.06    0.71   -0.27
#  35   -0.35   -0.29    0.07    0.06   -0.08    0.00    0.00      -0.59    0.21   -0.28
#  36   -0.15   -0.37    0.08    0.21   -0.09    0.00    0.00      -0.32    0.63   -0.28
#  37    0.21   -0.81    0.79    0.50   -0.11    0.00    0.00       0.58    1.22   -0.28
#  38   -0.15   -0.22    0.02    0.20   -0.07    0.00    0.00      -0.21    0.83   -0.28
#  39   -0.07   -0.66    0.30    0.36   -0.13    0.00    0.00      -0.20    0.76   -0.28
#  40   -0.31   -1.05    0.95    0.58   -0.18    0.00    0.00       0.00    0.90   -0.28
#  41    0.95   -0.47    0.19    0.71   -0.12    0.00    0.00       1.26    1.64   -0.28
#  42    1.01   -0.29    0.04    0.61   -0.09    0.00    0.00       1.28    1.91   -0.28
@<TRIPOS>MOLECULE
E43593868
   42    44     0     0     0
SMALL
USER_CHARGES


@<TRIPOS>ATOM
      1 O1         25.8587   16.5959   60.2484 O.2       1            -0.5093
      2 C1         25.2451   17.4130   60.9063 C.2       1             0.7016
      3 N1         24.7157   18.5414   60.3954 N.am      1            -0.7292
      4 C2         24.0678   19.2383   61.5130 C.3       1             0.1096
      5 C3         24.7077   20.6053   61.7354 C.3       1            -0.1449
      6 C4         24.4011   21.5084   60.5374 C.3       1            -0.0039
      7 N2         22.9478   21.6450   60.3846 N.4       1            -0.5067
      8 H1         22.5524   22.0010   61.2420 H         1             0.4328
      9 H2         22.7488   22.2874   59.6321 H         1             0.4381
     10 C5         22.3513   20.3392   60.0783 C.3       1            -0.0041
     11 C6         22.5712   19.3865   61.2569 C.3       1            -0.1444
     12 C7         24.3150   18.3385   62.7012 C.2       1             0.5323
     13 O2         23.9562   18.5182   63.8452 O.2       1            -0.4421
     14 N3         25.0143   17.2900   62.2193 N.am      1            -0.5699
     15 C8         25.4685   16.1594   63.0327 C.3       1             0.1137
     16 C9         24.3956   15.0686   63.0342 C.3       1            -0.1299
     17 C10        23.0986   15.6299   63.6202 C.3       1            -0.0721
     18 C11        22.0417   14.5555   63.6217 C.ar      1            -0.1409
     19 C12        22.3960   13.2254   63.7481 C.ar      1             0.1036
     20 N4         21.4769   12.2800   63.7508 N.ar      1            -0.4817
     21 C13        20.1935   12.5601   63.6341 C.ar      1             0.0979
     22 C14        19.7643   13.8671   63.5038 C.ar      1            -0.1695
     23 C15        20.7014   14.8892   63.5021 C.ar      1            -0.0727
     24 H3         24.7553   18.8353   59.4717 H         1             0.4390
     25 H4         24.3021   21.0535   62.6424 H         1             0.1182
     26 H5         25.7868   20.4897   61.8372 H         1             0.1254
     27 H6         24.8429   22.4913   60.7014 H         1             0.1481
     28 H7         24.8215   21.0678   59.6335 H         1             0.1325
     29 H8         21.2822   20.4602   59.9038 H         1             0.1483
     30 H9         22.8203   19.9263   59.1852 H         1             0.1325
     31 H10        22.1442   18.4116   61.0212 H         1             0.1260
     32 H11        22.0881   19.7905   62.1464 H         1             0.1183
     33 H12        26.3927   15.7595   62.6152 H         1             0.1030
     34 H13        25.6467   16.4951   64.0542 H         1             0.1065
     35 H14        24.2175   14.7328   62.0128 H         1             0.0747
     36 H15        24.7337   14.2273   63.6394 H         1             0.0697
     37 H16        23.2768   15.9657   64.6416 H         1             0.0815
     38 H17        22.7606   16.4711   63.0149 H         1             0.0845
     39 H18        23.4377   12.9575   63.8456 H         1             0.1546
     40 H19        19.4696   11.7587   63.6401 H         1             0.1580
     41 H20        18.7118   14.0901   63.4086 H         1             0.1374
     42 H21        20.3949   15.9203   63.4064 H         1             0.1336
@<TRIPOS>BOND
     1    1    2 2 
     2    2   14 am
     3    2    3 am
     4    3    4 1 
     5    3   24 1 
     6    4   11 1 
     7    4    5 1 
     8    4   12 1 
     9    5    6 1 
    10    5   25 1 
    11    5   26 1 
    12    6    7 1 
    13    6   27 1 
    14    6   28 1 
    15    7    8 1 
    16    7    9 1 
    17    7   10 1 
    18   10   11 1 
    19   10   29 1 
    20   10   30 1 
    21   11   31 1 
    22   11   32 1 
    23   12   13 2 
    24   12   14 am
    25   14   15 1 
    26   15   16 1 
    27   15   33 1 
    28   15   34 1 
    29   16   17 1 
    30   16   35 1 
    31   16   36 1 
    32   17   18 1 
    33   17   37 1 
    34   17   38 1 
    35   18   23 ar
    36   18   19 ar
    37   19   20 ar
    38   19   39 1 
    39   20   21 ar
    40   21   22 ar
    41   21   40 1 
    42   22   23 ar
    43   22   41 1 
    44   23   42 1 
##########                 Name:            E32117048
##########          Protonation:                   99
##########               SMILES:   CC(C)[NH+]1CC[C@@H](C1)CNc2ccc(cc2[N+](=O)[O-])F
##########            Long Name:   4-fluoro-N-[[(3R)-1-isopropylpyrrolidin-1-ium-3-yl]methyl]-2-nitro-aniline
##########          FlexRecCode: 1
##########               Number:                  453
##########   Ligand Source File: /raidb/db2/rgc/leads-emolecules-300/leads-lt300-emolecules-1j-0000234.db2.gz
##########           GlobalRank: 2125
##########                 Rank:                    1
##########               Setnum:                   40
##########             Matchnum:                  847
##########                Cloud:                    1
##########        Electrostatic:           -22.059425
##########        Van der Waals:           -22.574518
##########  Ligand Polar Desolv:             6.449753
########## Ligand Apolar Desolv:            -3.275130
##########      Internal Energy:             0.000000
##########      Receptor Energy: 0.0
########## Receptor Desolvation:             0.000000
########## Receptor Hydrophobic:             0.000000
##########         Total Energy: -41.46
##########        Ligand Charge:             1.000000
##########            Arbitrary:    +999.9990
##########     heavy atom count:   20
##########           pose count:    1
##########        Ligand Energy:             0.000000
# num electro vdwattr vdwrepu polsolv apolsol rdesolv rhydroe totalscore fullpol fullapo
#   1    1.58   -0.43    0.05   -1.05   -0.03    0.00    0.00       0.12   -5.29   -0.17
#   2   -0.34   -0.48    0.04    0.55   -0.06    0.00    0.00      -0.30    2.15   -0.22
#   3    2.18   -0.59    0.06   -1.42   -0.05    0.00    0.00       0.18   -5.16   -0.17
#   4    7.19   -0.87    0.14   -3.89    0.09    0.00    0.00       2.66  -12.08    0.28
#   5  -11.91   -0.04    0.00    4.16    0.15    0.00    0.00      -7.64   15.13    0.56
#   6    0.04   -0.98    0.22    0.19   -0.15    0.00    0.00      -0.68    0.49   -0.39
#   7    2.14   -0.75    0.05   -1.87   -0.11    0.00    0.00      -0.54   -4.24   -0.26
#   8    1.22   -0.62    0.05   -1.18   -0.07    0.00    0.00      -0.62   -3.18   -0.20
#   9   -0.55   -0.90    0.10    0.95   -0.13    0.00    0.00      -0.54    2.33   -0.31
#  10   -0.82   -1.84    0.44   -5.90    0.70    0.00    0.00      -7.42  -13.12    1.56
#  11    0.74   -1.67    0.39    1.83   -0.31    0.00    0.00       0.98    4.15   -0.70
#  12   -0.11   -1.81    0.46   -1.06   -0.21    0.00    0.00      -2.73   -2.26   -0.44
#  13   -0.08   -2.52    0.75   -0.26   -0.26    0.00    0.00      -2.37   -0.47   -0.47
#  14    0.25   -2.54    0.55   -0.04   -0.21    0.00    0.00      -1.99   -0.07   -0.34
#  15   -0.71   -3.57    3.20   -0.58   -0.33    0.00    0.00      -1.99   -0.85   -0.48
#  16   -0.23   -1.78    0.27   -0.39   -0.27    0.00    0.00      -2.41   -0.64   -0.45
#  17   -0.56   -1.61    0.30   -0.66   -0.34    0.00    0.00      -2.87   -1.27   -0.66
#  18    0.58   -2.24    0.88    0.13    0.21    0.00    0.00      -0.44    0.26    0.40
#  19   -1.89   -2.99    2.55   -0.26   -0.34    0.00    0.00      -2.93   -0.50   -0.65
#  20   -3.27   -3.23    2.63   -0.38   -0.31    0.00    0.00      -4.56   -0.69   -0.57
#  21   -0.05   -0.51    0.03    0.20   -0.10    0.00    0.00      -0.44    0.67   -0.35
#  22   -0.55   -0.09    0.00    0.16   -0.02    0.00    0.00      -0.50    1.96   -0.28
#  23   -1.43   -0.35    0.23    0.28   -0.06    0.00    0.00      -1.33    1.35   -0.28
#  24   -0.30   -0.07    0.00    0.19   -0.02    0.00    0.00      -0.18    3.02   -0.24
#  25   -0.93   -0.16    0.01    0.90   -0.05    0.00    0.00      -0.23    5.30   -0.27
#  26   -1.28   -0.32    0.13    0.44   -0.07    0.00    0.00      -1.09    1.89   -0.28
#  27   -0.43   -0.10    0.00    0.22   -0.02    0.00    0.00      -0.32    2.41   -0.23
#  28   -1.51   -0.29    0.09    0.31   -0.06    0.00    0.00      -1.47    1.33   -0.28
#  29   -1.84   -0.51    0.27    1.49   -0.08    0.00    0.00      -0.67    5.00   -0.27
#  30   -3.31   -0.43    0.16    1.49   -0.09    0.00    0.00      -2.18    4.40   -0.26
#  31   -1.06   -0.30    0.06    0.51   -0.08    0.00    0.00      -0.86    1.79   -0.27
#  32   -2.08   -0.28    0.02    0.66   -0.09    0.00    0.00      -1.76    1.94   -0.28
#  33   -1.08   -0.33    0.16    0.66   -0.07    0.00    0.00      -0.66    2.76   -0.28
#  34   -0.31   -0.29    0.05    0.74   -0.07    0.00    0.00       0.11    2.96   -0.28
#  35   -0.39   -0.43    0.08    1.33   -0.10    0.00    0.00       0.50    3.61   -0.26
#  36    1.63   -0.05    0.00    2.56    0.16    0.00    0.00       4.30    6.57    0.40
#  37   -0.15   -0.31    0.06    1.72   -0.07    0.00    0.00       1.25    5.92   -0.23
#  38   -0.20   -0.86    0.69    1.70   -0.14    0.00    0.00       1.19    3.48   -0.28
#  39    0.76   -0.44    0.13    0.10   -0.13    0.00    0.00       0.42    0.21   -0.28
#  40   -1.80   -0.18    0.02    1.16   -0.05    0.00    0.00      -0.86    5.67   -0.26
#  41   -1.21   -0.15    0.01    0.77   -0.03    0.00    0.00      -0.61    6.05   -0.27
@<TRIPOS>MOLECULE
E32117048
   41    42     0     0     0
SMALL
USER_CHARGES


@<TRIPOS>ATOM
      1 C1         26.5577   20.2684   60.1708 C.3       1            -0.1836
      2 C2         25.3019   20.6720   60.9461 C.3       1             0.0289
      3 C3         24.8840   22.0866   60.5393 C.3       1            -0.1833
      4 N1         24.2145   19.7331   60.6398 N.4       1            -0.3945
      5 H1         24.0076   19.7428   59.6522 H         1             0.4276
      6 C4         23.0049   20.0645   61.4271 C.3       1            -0.0023
      7 C5         22.2030   18.7692   61.2558 C.3       1            -0.1497
      8 C6         23.2736   17.7360   61.5891 C.3       1            -0.1241
      9 C7         23.3434   17.5019   63.0996 C.3       1             0.1264
     10 N2         22.0475   17.0145   63.5786 N.pl3     1            -0.7352
     11 C8         21.7867   15.6413   63.6138 C.ar      1             0.2624
     12 C9         22.8379   14.7333   63.6099 C.ar      1            -0.1658
     13 C10        22.5780   13.3774   63.6446 C.ar      1            -0.0542
     14 C11        21.2705   12.9228   63.6833 C.ar      1             0.0640
     15 F1         21.0185   11.5960   63.7176 F         1            -0.1207
     16 C12        20.2212   13.8259   63.6872 C.ar      1            -0.0515
     17 C13        20.4766   15.1832   63.6584 C.ar      1            -0.0903
     18 N3         19.3547   16.1484   63.6692 N.pl3     1             0.0390
     19 O1         18.8682   16.5216   62.6272 O.2       1            -0.1305
     20 O2         18.9247   16.5637   64.7201 O.3       1            -0.1746
     21 C14        24.5679   18.3704   61.0811 C.3       1             0.0040
     22 H2         26.8553   19.2608   60.4607 H         1             0.0812
     23 H3         26.3478   20.2920   59.1015 H         1             0.1058
     24 H4         27.3645   20.9652   60.3981 H         1             0.0803
     25 H5         25.5118   20.6486   62.0154 H         1             0.1354
     26 H6         23.9893   22.3741   61.0916 H         1             0.0812
     27 H7         25.6909   22.7833   60.7667 H         1             0.0803
     28 H8         24.6742   22.1101   59.4700 H         1             0.1059
     29 H9         23.2514   20.2405   62.4742 H         1             0.1331
     30 H10        22.4759   20.9158   60.9988 H         1             0.1368
     31 H11        21.3745   18.7214   61.9624 H         1             0.1126
     32 H12        21.8505   18.6558   60.2306 H         1             0.1062
     33 H13        23.0786   16.7997   61.0664 H         1             0.1202
     34 H14        24.1130   16.7614   63.3173 H         1             0.0840
     35 H15        23.5876   18.4382   63.6014 H         1             0.0776
     36 H16        21.3706   17.6444   63.8714 H         1             0.4143
     37 H17        23.8577   15.0875   63.5793 H         1             0.1532
     38 H18        23.3950   12.6711   63.6413 H         1             0.1591
     39 H19        19.2023   13.4691   63.7174 H         1             0.1639
     40 H20        24.9655   17.7968   60.2437 H         1             0.1410
     41 H21        25.3029   18.4156   61.8847 H         1             0.1361
@<TRIPOS>BOND
     1    1    2 1 
     2    1   22 1 
     3    1   23 1 
     4    1   24 1 
     5    2    3 1 
     6    2    4 1 
     7    2   25 1 
     8    3   26 1 
     9    3   27 1 
    10    3   28 1 
    11    4    5 1 
    12    4   21 1 
    13    4    6 1 
    14    6    7 1 
    15    6   29 1 
    16    6   30 1 
    17    7    8 1 
    18    7   31 1 
    19    7   32 1 
    20    8    9 1 
    21    8   21 1 
    22    8   33 1 
    23    9   10 1 
    24    9   34 1 
    25    9   35 1 
    26   10   11 1 
    27   10   36 1 
    28   11   17 ar
    29   11   12 ar
    30   12   13 ar
    31   12   37 1 
    32   13   14 ar
    33   13   38 1 
    34   14   15 1 
    35   14   16 ar
    36   16   17 ar
    37   16   39 1 
    38   17   18 1 
    39   18   19 2 
    40   18   20 1 
    41   21   40 1 
    42   21   41 1 
##########                 Name:            E44436918
##########          Protonation:                   98
##########               SMILES:   c1cc(c(cc1C(F)(F)F)CN2CC[C@H]([C@H](C2)O)[NH3+])F
##########            Long Name:   -[[2-fluoro-5-(trifluoromethyl)phenyl]methyl]-3-hydroxy-4-piperidyl]ammonium
##########          FlexRecCode: 1
##########               Number:                   27
##########   Ligand Source File: /raidb/db2/rgc/leads-emolecules-300/leads-emolecules-2e-0000340.db2.gz
##########           GlobalRank: 2145
##########                 Rank:                    1
##########               Setnum:                   17
##########             Matchnum:                 2346
##########                Cloud:                    1
##########        Electrostatic:           -21.751112
##########        Van der Waals:           -22.350622
##########  Ligand Polar Desolv:             4.354455
########## Ligand Apolar Desolv:            -1.694475
##########      Internal Energy:             0.000000
##########      Receptor Energy: 0.0
########## Receptor Desolvation:             0.000000
########## Receptor Hydrophobic:             0.000000
##########         Total Energy: -41.44
##########        Ligand Charge:             1.000000
##########            Arbitrary:    +999.9990
##########     heavy atom count:   20
##########           pose count:    1
##########        Ligand Energy:             0.000000
# num electro vdwattr vdwrepu polsolv apolsol rdesolv rhydroe totalscore fullpol fullapo
#   1   12.15   -1.28    0.89   -6.13    0.21    0.00    0.00       5.84  -21.79    0.73
#   2  -12.11   -0.08    0.01    4.56    0.15    0.00    0.00      -7.47   16.63    0.54
#   3   -4.92   -0.01    0.00    1.79    0.04    0.00    0.00      -3.10   15.84    0.35
#   4   -7.53   -0.02    0.00    3.05    0.10    0.00    0.00      -4.40   18.35    0.58
#   5   -0.78   -0.76    0.11    0.92   -0.12    0.00    0.00      -0.62    2.57   -0.32
#   6    1.98   -1.06    0.29   -1.26   -0.09    0.00    0.00      -0.15   -3.44   -0.24
#   7   -0.38   -1.81    0.86    0.15   -0.17    0.00    0.00      -1.34    0.35   -0.38
#   8    3.01   -1.43    0.19   -5.07    1.34    0.00    0.00      -1.96  -11.75    3.11
#   9   -0.29   -1.14    0.17    0.77   -0.16    0.00    0.00      -0.64    1.78   -0.36
#  10    0.03   -1.57    0.28   -0.56   -0.14    0.00    0.00      -1.97   -1.34   -0.33
#  11   -0.26   -1.67    0.41    0.54   -0.14    0.00    0.00      -1.12    1.31   -0.34
#  12    0.42   -0.86    0.17   -0.46   -0.16    0.00    0.00      -0.88   -1.32   -0.46
#  13    0.33   -2.22    0.76   -0.81   -0.22    0.00    0.00      -2.16   -1.71   -0.47
#  14   -0.04   -2.49    0.72   -0.34   -0.24    0.00    0.00      -2.39   -0.62   -0.44
#  15   -0.62   -1.78    0.44   -1.21   -0.21    0.00    0.00      -3.38   -2.14   -0.37
#  16   -0.12   -1.67    0.40   -0.15   -0.18    0.00    0.00      -1.71   -0.33   -0.40
#  17    2.20   -1.24    0.18    2.46   -0.04    0.00    0.00       3.55    4.02   -0.07
#  18   -0.30   -1.76    0.39   -0.78   -0.29    0.00    0.00      -2.74   -1.17   -0.44
#  19   -1.01   -1.18    0.32   -0.80   -0.28    0.00    0.00      -2.96   -1.35   -0.47
#  20   -0.93   -1.40    0.49   -0.87   -0.28    0.00    0.00      -2.99   -1.48   -0.48
#  21   -0.10   -0.89    0.19    0.10   -0.16    0.00    0.00      -0.86    0.23   -0.37
#  22   -1.30   -0.77    0.11    0.85   -0.05    0.00    0.00      -1.17    2.41   -0.14
#  23    5.11   -0.65    0.03   -4.09    0.47    0.00    0.00       0.88  -14.04    1.63
#  24   -4.10   -0.36    0.09    1.74   -0.09    0.00    0.00      -2.72    5.34   -0.28
#  25   -0.95   -0.29    0.04    1.12   -0.07    0.00    0.00      -0.15    4.48   -0.28
#  26   -2.12   -0.58    0.66    0.34   -0.07    0.00    0.00      -1.77    1.29   -0.28
#  27   -0.33   -1.36    1.65    1.64   -0.11    0.00    0.00       1.49    3.32   -0.23
#  28   -1.73   -0.58    0.28    0.36   -0.09    0.00    0.00      -1.76    0.97   -0.24
#  29   -0.60   -0.30    0.05    0.33   -0.07    0.00    0.00      -0.59    1.24   -0.26
#  30   -0.03   -0.71    0.26    1.07   -0.13    0.00    0.00       0.47    2.26   -0.27
#  31   -0.85   -0.60    0.49    0.59   -0.11    0.00    0.00      -0.47    1.56   -0.28
#  32    0.76   -0.94    0.61    0.74   -0.14    0.00    0.00       1.02    1.33   -0.25
#  33    1.01   -0.33    0.07    1.03   -0.09    0.00    0.00       1.68    3.18   -0.28
#  34   -0.25   -0.57    0.89    0.82   -0.06    0.00    0.00       0.82    2.93   -0.23
#  35   -1.51   -0.28    0.03    0.38   -0.09    0.00    0.00      -1.47    1.13   -0.27
#  36   -2.05   -0.49    0.27    0.35   -0.10    0.00    0.00      -2.01    1.00   -0.28
#  37   -3.53   -0.01    0.00    1.16    0.14    0.00    0.00      -2.24    9.89    1.22
@<TRIPOS>MOLECULE
E44436918
   37    38     0     0     0
SMALL
USER_CHARGES


@<TRIPOS>ATOM
      1 N1         25.0256   19.7784   60.0306 N.4       1            -0.6355
      2 H1         25.1118   19.3891   59.1038 H         1             0.4436
      3 H2         25.7324   19.3792   60.6301 H         1             0.4251
      4 H3         25.1472   20.7792   59.9878 H         1             0.4363
      5 C1         23.6946   19.4695   60.5699 C.3       1             0.0399
      6 C2         23.5664   20.0479   61.9815 C.3       1            -0.1401
      7 C3         22.1942   19.6813   62.5512 C.3       1             0.0317
      8 N2         22.0513   18.2201   62.5881 N.3       1            -0.5282
      9 C4         23.0456   17.6164   63.4853 C.3       1             0.0990
     10 C5         22.8683   16.1200   63.4971 C.ar      1            -0.1315
     11 C6         23.9736   15.2906   63.4076 C.ar      1             0.1611
     12 F1         25.2116   15.8226   63.3094 F         1            -0.1213
     13 C7         23.8092   13.9161   63.4192 C.ar      1            -0.1532
     14 C8         22.5422   13.3730   63.5201 C.ar      1            -0.0321
     15 C9         21.4396   14.2018   63.6095 C.ar      1            -0.1926
     16 C10        21.6030   15.5747   63.6033 C.ar      1            -0.0361
     17 C11        20.0587   13.6084   63.7195 C.3       1             0.5102
     18 F2         20.1489   12.2123   63.7106 F         1            -0.1713
     19 F3         19.4639   14.0297   64.9136 F         1            -0.1727
     20 F4         19.2813   14.0324   62.6364 F         1            -0.1760
     21 C12        22.1371   17.6405   61.2414 C.3       1             0.0096
     22 C13        23.5078   17.9515   60.6361 C.3       1             0.0896
     23 O1         24.5315   17.3792   61.4525 O.3       1            -0.5723
     24 H4         22.9300   19.9037   59.9259 H         1             0.1540
     25 H5         24.3479   19.6324   62.6178 H         1             0.1067
     26 H6         23.6665   21.1324   61.9415 H         1             0.1256
     27 H7         22.1020   20.0806   63.5612 H         1             0.0357
     28 H8         21.4138   20.1066   61.9202 H         1             0.1084
     29 H9         24.0480   17.8607   63.1337 H         1             0.0998
     30 H10        22.9091   18.0066   64.4938 H         1             0.0637
     31 H11        24.6706   13.2684   63.3489 H         1             0.1537
     32 H12        22.4136   12.3008   63.5288 H         1             0.1539
     33 H13        20.7411   16.2213   63.6776 H         1             0.1410
     34 H14        22.0036   16.5605   61.3018 H         1             0.0404
     35 H15        21.3568   18.0681   60.6118 H         1             0.1080
     36 H16        23.5658   17.5331   59.6313 H         1             0.1141
     37 H17        25.4285   17.5420   61.1302 H         1             0.4119
@<TRIPOS>BOND
     1    1    2 1 
     2    1    3 1 
     3    1    4 1 
     4    1    5 1 
     5    5   22 1 
     6    5    6 1 
     7    5   24 1 
     8    6    7 1 
     9    6   25 1 
    10    6   26 1 
    11    7    8 1 
    12    7   27 1 
    13    7   28 1 
    14    8    9 1 
    15    8   21 1 
    16    9   10 1 
    17    9   29 1 
    18    9   30 1 
    19   10   16 ar
    20   10   11 ar
    21   11   12 1 
    22   11   13 ar
    23   13   14 ar
    24   13   31 1 
    25   14   15 ar
    26   14   32 1 
    27   15   16 ar
    28   15   17 1 
    29   16   33 1 
    30   17   18 1 
    31   17   19 1 
    32   17   20 1 
    33   21   22 1 
    34   21   34 1 
    35   21   35 1 
    36   22   23 1 
    37   22   36 1 
    38   23   37 1 
##########                 Name:            E46176242
##########          Protonation:                   20
##########               SMILES:   c1cc([nH]c1)C[NH+]2C[C@H]3[C@@H]2CN(C3)C(=O)c4ccncc4
##########            Long Name:   )-6-(1H-pyrrol-2-ylmethyl)-3-aza-6-azoniabicyclo[3.2.0]heptan-3-yl]methanone
##########          FlexRecCode: 1
##########               Number:                  302
##########   Ligand Source File: /raidb/db2/rgc/leads-emolecules-300/2-leads-lt300-emolecules-1-0000066.db2.gz
##########           GlobalRank: 2182
##########                 Rank:                    1
##########               Setnum:                   56
##########             Matchnum:                 1074
##########                Cloud:                    1
##########        Electrostatic:           -29.706697
##########        Van der Waals:           -21.797228
##########  Ligand Polar Desolv:            12.077295
########## Ligand Apolar Desolv:            -1.980001
##########      Internal Energy:             0.000000
##########      Receptor Energy: 0.0
########## Receptor Desolvation:             0.000000
########## Receptor Hydrophobic:             0.000000
##########         Total Energy: -41.41
##########        Ligand Charge:             1.000000
##########            Arbitrary:    +999.9990
##########     heavy atom count:   21
##########           pose count:    1
##########        Ligand Energy:             0.000000
# num electro vdwattr vdwrepu polsolv apolsol rdesolv rhydroe totalscore fullpol fullapo
#   1   -8.12   -5.17    9.19   -2.17    0.19    0.00    0.00      -6.08   -4.46    0.40
#   2    3.40   -2.19    0.96    3.44   -0.30    0.00    0.00       5.31    7.52   -0.66
#   3    1.03   -1.47    0.21   -5.59    0.91    0.00    0.00      -4.91  -12.79    2.08
#   4   -0.55   -0.78    0.16    0.31   -0.12    0.00    0.00      -0.97    0.82   -0.30
#   5    1.89   -0.62    0.03   -1.35   -0.13    0.00    0.00      -0.18   -3.49   -0.33
#   6   -0.41   -0.92    0.09    0.48   -0.25    0.00    0.00      -1.00    1.04   -0.54
#   7    8.28   -1.74    1.01   -5.43    0.22    0.00    0.00       2.34  -13.56    0.56
#   8  -10.62   -0.12    0.03    5.11    0.20    0.00    0.00      -5.41   13.34    0.51
#   9   -1.59   -0.97    0.19    0.99   -0.14    0.00    0.00      -1.52    2.90   -0.42
#  10    0.87   -1.16    0.28   -0.08   -0.20    0.00    0.00      -0.30   -0.28   -0.70
#  11    0.60   -0.79    0.08   -0.86   -0.12    0.00    0.00      -1.10   -3.68   -0.51
#  12   -0.38   -0.89    0.12   -0.91   -0.12    0.00    0.00      -2.17   -3.81   -0.51
#  13    0.10   -1.15    0.20   -0.19   -0.29    0.00    0.00      -1.32   -0.66   -1.01
#  14    2.15   -1.61    0.73   -3.17    0.34    0.00    0.00      -1.57  -10.79    1.14
#  15   -0.29   -1.02    0.17    1.08   -0.17    0.00    0.00      -0.23    2.78   -0.44
#  16   -0.52   -1.68    0.47    0.75   -0.22    0.00    0.00      -1.21    1.60   -0.47
#  17   -0.38   -1.65    0.39   -0.64   -0.20    0.00    0.00      -2.48   -1.34   -0.41
#  18   -0.21   -1.79    0.44   -0.95   -0.19    0.00    0.00      -2.70   -2.01   -0.41
#  19    0.10   -2.61    0.88    0.45   -0.53    0.00    0.00      -1.71    0.83   -0.98
#  20   -2.25   -3.45    1.24   -2.38    1.29    0.00    0.00      -5.54   -3.77    2.05
#  21    0.38   -2.29    0.40    0.17   -0.62    0.00    0.00      -1.96    0.27   -0.98
#  22   -0.59   -1.63    0.25   -0.73   -0.27    0.00    0.00      -2.97   -1.24   -0.45
#  23   -0.65   -0.18    0.02    0.54   -0.04    0.00    0.00      -0.32    2.92   -0.23
#  24   -0.72   -0.61    0.95    1.06   -0.06    0.00    0.00       0.62    3.69   -0.22
#  25   -2.67   -0.18    0.01    1.36   -0.06    0.00    0.00      -1.54    6.73   -0.28
#  26   -4.35   -0.46    0.16    3.17   -0.10    0.00    0.00      -1.59    8.25   -0.26
#  27   -2.07   -0.29    0.04    1.63   -0.09    0.00    0.00      -0.77    5.04   -0.27
#  28   -3.08   -0.34    0.18    1.08   -0.06    0.00    0.00      -2.21    5.20   -0.28
#  29   -3.85   -0.51    0.23    2.58   -0.09    0.00    0.00      -1.64    7.69   -0.26
#  30   -0.82   -0.12    0.01    0.52   -0.04    0.00    0.00      -0.45    4.01   -0.28
#  31    0.38   -0.13    0.01    0.13   -0.04    0.00    0.00       0.35    0.99   -0.28
#  32    0.50   -0.23    0.04    0.48   -0.06    0.00    0.00       0.73    2.08   -0.28
#  33   -3.39   -0.03    0.00    2.20    0.14    0.00    0.00      -1.08    9.46    0.60
#  34   -1.66   -0.34    0.06    2.74   -0.07    0.00    0.00       0.72   10.23   -0.28
#  35   -0.76   -0.91    0.64    0.95   -0.13    0.00    0.00      -0.21    2.02   -0.28
#  36   -0.32   -0.87    0.41    1.21   -0.14    0.00    0.00       0.29    2.35   -0.28
#  37   -0.07   -0.30    0.05    1.72   -0.03    0.00    0.00       1.37    5.93   -0.11
#  38   -0.44   -0.69    0.45    1.49   -0.13    0.00    0.00       0.68    3.30   -0.28
#  39    0.17   -0.62    0.17    0.66   -0.17    0.00    0.00       0.21    1.10   -0.28
#  40    1.21   -0.29    0.03    0.25   -0.10    0.00    0.00       1.10    0.69   -0.27
@<TRIPOS>MOLECULE
E46176242
   40    43     0     0     0
SMALL
USER_CHARGES


@<TRIPOS>ATOM
      1 O1         20.0684   17.1942   64.1120 O.2       1            -0.4972
      2 C1         21.0599   16.7288   63.5858 C.2       1             0.5841
      3 N1         21.9416   17.5422   62.9714 N.am      1            -0.6281
      4 C2         22.7819   17.1933   61.8236 C.3       1             0.0774
      5 C3         23.1950   18.5088   61.1659 C.3       1            -0.1354
      6 C4         22.0061   19.3718   60.7467 C.3       1             0.0210
      7 N2         22.7443   20.4594   61.4068 N.4       1            -0.4118
      8 H1         22.1431   21.1432   61.8418 H         1             0.4290
      9 C5         23.7726   21.0664   60.5513 C.3       1             0.0762
     10 C6         24.7773   21.7904   61.4100 C.2       1            -0.0821
     11 C7         25.9045   21.2597   61.9259 C.2       1            -0.1312
     12 C8         26.5502   22.2736   62.6607 C.2       1            -0.2008
     13 C9         25.7930   23.3855   62.5656 C.2       1             0.0391
     14 N3         24.7065   23.0967   61.7943 N.pl3     1            -0.5541
     15 C10        23.2821   19.4689   62.3559 C.3       1             0.0254
     16 C11        22.2251   18.9352   63.3296 C.3       1             0.0937
     17 C12        21.3027   15.2679   63.6249 C.ar      1            -0.0969
     18 C13        22.6036   14.7555   63.6282 C.ar      1            -0.1832
     19 C14        22.7843   13.3865   63.6656 C.ar      1             0.1035
     20 N4         21.7514   12.5681   63.6980 N.ar      1            -0.4591
     21 C15        20.5092   13.0092   63.6962 C.ar      1             0.1092
     22 C16        20.2373   14.3633   63.6654 C.ar      1            -0.1108
     23 H2         23.6654   16.6502   62.1592 H         1             0.1145
     24 H3         22.2161   16.5849   61.1180 H         1             0.0979
     25 H4         24.0409   18.4589   60.4803 H         1             0.1627
     26 H5         21.9051   19.4946   59.6682 H         1             0.1628
     27 H6         21.0702   19.1075   61.2391 H         1             0.1436
     28 H7         24.2772   20.2868   59.9806 H         1             0.1314
     29 H8         23.3043   21.7729   59.8659 H         1             0.1513
     30 H9         26.2488   20.2438   61.7995 H         1             0.1473
     31 H10        27.4805   22.1780   63.2010 H         1             0.1505
     32 H11        26.0119   24.3411   63.0189 H         1             0.1789
     33 H12        23.9987   23.7171   61.5600 H         1             0.4184
     34 H13        24.2679   19.6714   62.7744 H         1             0.1955
     35 H14        21.3145   19.5289   63.2497 H         1             0.1046
     36 H15        22.6083   18.9830   64.3489 H         1             0.1211
     37 H16        23.4545   15.4202   63.6015 H         1             0.1616
     38 H17        23.7853   12.9811   63.6682 H         1             0.1666
     39 H18        19.6930   12.3024   63.7235 H         1             0.1713
     40 H19        19.2171   14.7178   63.6684 H         1             0.1519
@<TRIPOS>BOND
     1    1    2 2 
     2    2    3 am
     3    2   17 1 
     4    3   16 1 
     5    3    4 1 
     6    4    5 1 
     7    4   23 1 
     8    4   24 1 
     9    5   15 1 
    10    5    6 1 
    11    5   25 1 
    12    6    7 1 
    13    6   26 1 
    14    6   27 1 
    15    7    8 1 
    16    7    9 1 
    17    7   15 1 
    18    9   10 1 
    19    9   28 1 
    20    9   29 1 
    21   10   14 1 
    22   10   11 2 
    23   11   12 1 
    24   11   30 1 
    25   12   13 2 
    26   12   31 1 
    27   13   14 1 
    28   13   32 1 
    29   14   33 1 
    30   15   16 1 
    31   15   34 1 
    32   16   35 1 
    33   16   36 1 
    34   17   22 ar
    35   17   18 ar
    36   18   19 ar
    37   18   37 1 
    38   19   20 ar
    39   19   38 1 
    40   20   21 ar
    41   21   22 ar
    42   21   39 1 
    43   22   40 1 
##########                 Name:            E48316171
##########          Protonation:                   20
##########               SMILES:   C[C@H](CNc1cc(cnc1)Br)Cn2cc[nH+]c2
##########            Long Name:   5-bromo-N-[(2R)-3-imidazol-3-ium-1-yl-2-methyl-propyl]pyridin-3-amine
##########          FlexRecCode: 1
##########               Number:                  209
##########   Ligand Source File: /raidb/db2/rgc/leads-emolecules-300/leads-emolecules-2g-0000254.db2.gz
##########           GlobalRank: 2182
##########                 Rank:                    1
##########               Setnum:                  263
##########             Matchnum:                 4191
##########                Cloud:                    1
##########        Electrostatic:           -26.144360
##########        Van der Waals:           -23.580406
##########  Ligand Polar Desolv:            11.148478
########## Ligand Apolar Desolv:            -2.834555
##########      Internal Energy:             0.000000
##########      Receptor Energy: 0.0
########## Receptor Desolvation:             0.000000
########## Receptor Hydrophobic:             0.000000
##########         Total Energy: -41.41
##########        Ligand Charge:             1.000000
##########            Arbitrary:    +999.9990
##########     heavy atom count:   17
##########           pose count:    1
##########        Ligand Energy:             0.000000
# num electro vdwattr vdwrepu polsolv apolsol rdesolv rhydroe totalscore fullpol fullapo
#   1    1.23   -0.88    0.22   -1.39   -0.06    0.00    0.00      -0.88   -3.92   -0.17
#   2    0.90   -0.58    0.05   -0.67   -0.05    0.00    0.00      -0.36   -2.33   -0.17
#   3   -0.48   -0.81    0.08    0.82   -0.13    0.00    0.00      -0.51    2.15   -0.33
#   4    1.17   -1.52    0.25   -4.94    0.67    0.00    0.00      -4.37  -11.87    1.61
#   5    0.16   -1.84    0.47    1.13   -0.35    0.00    0.00      -0.43    2.34   -0.72
#   6   -0.50   -1.78    0.45   -0.68   -0.22    0.00    0.00      -2.73   -1.36   -0.45
#   7   -0.51   -1.79    0.33   -0.36   -0.18    0.00    0.00      -2.51   -0.60   -0.30
#   8   -0.20   -5.11    1.52   -0.19   -0.65    0.00    0.00      -4.63   -0.32   -1.10
#   9    0.28   -2.71    0.75   -0.04   -0.62    0.00    0.00      -2.33   -0.06   -0.96
#  10   -2.59   -4.35    2.51   -1.55    1.30    0.00    0.00      -4.69   -2.43    2.03
#  11    0.04   -3.07    1.32    0.13   -0.50    0.00    0.00      -2.08    0.23   -0.91
#  12   -1.08   -0.53    0.03    0.92   -0.13    0.00    0.00      -0.78    3.09   -0.42
#  13    6.49   -0.99    0.05   -4.72    0.43    0.00    0.00       1.27  -12.07    1.09
#  14   -0.36   -1.32    0.14   -0.10   -0.45    0.00    0.00      -2.09   -0.23   -0.98
#  15   -0.10   -1.74    0.25   -0.26   -0.54    0.00    0.00      -2.39   -0.49   -1.02
#  16   12.58   -3.25    1.80   -7.35    0.60    0.00    0.00       4.40  -14.03    1.15
#  17  -16.29   -0.18    0.07    8.19    0.32    0.00    0.00      -7.89   14.96    0.59
#  18   -7.03   -2.36    0.92    3.97   -1.21    0.00    0.00      -5.71    9.12   -2.78
#  19   -0.55   -0.21    0.02    0.46   -0.07    0.00    0.00      -0.35    1.91   -0.28
#  20   -0.27   -0.26    0.04    0.67   -0.07    0.00    0.00       0.12    2.26   -0.22
#  21   -0.78   -0.61    0.64    0.12   -0.08    0.00    0.00      -0.69    0.39   -0.24
#  22   -0.65   -0.24    0.07    0.36   -0.05    0.00    0.00      -0.51    2.13   -0.28
#  23   -0.16   -0.41    0.08    0.64   -0.09    0.00    0.00       0.06    1.84   -0.27
#  24   -0.28   -0.21    0.03    0.39   -0.06    0.00    0.00      -0.13    1.87   -0.27
#  25   -0.93   -0.02    0.00    1.96    0.14    0.00    0.00       1.14    7.32    0.51
#  26    0.76   -0.37    0.11    0.58   -0.09    0.00    0.00       0.99    1.77   -0.28
#  27   -0.10   -0.80    0.41    0.30   -0.17    0.00    0.00      -0.36    0.50   -0.28
#  28   -0.88   -1.27    3.44    1.39   -0.11    0.00    0.00       2.56    2.92   -0.23
#  29   -1.14   -0.25    0.03    1.07   -0.06    0.00    0.00      -0.36    4.77   -0.28
#  30   -1.54   -0.12    0.00    0.45   -0.03    0.00    0.00      -1.23    3.90   -0.28
#  31   -2.06   -0.39    0.08    2.16   -0.10    0.00    0.00      -0.30    6.31   -0.28
#  32   -3.57   -0.40    0.09    3.08   -0.13    0.00    0.00      -0.93    6.55   -0.28
#  33   -7.69   -1.06    1.57    4.60   -0.12    0.00    0.00      -2.70   10.81   -0.28
@<TRIPOS>MOLECULE
E48316171
   33    34     0     0     0
SMALL
USER_CHARGES


@<TRIPOS>ATOM
      1 C1         24.6804   16.3105   60.7595 C.3       1            -0.1623
      2 C2         24.6634   17.1737   62.0227 C.3       1            -0.1227
      3 C3         23.5326   16.7090   62.9427 C.3       1             0.1299
      4 N1         23.7481   15.3076   63.3117 N.pl3     1            -0.7412
      5 C4         22.6550   14.4800   63.5804 C.ar      1             0.1648
      6 C5         21.4161   15.0285   63.9040 C.ar      1            -0.1219
      7 C6         20.3621   14.1665   64.1618 C.ar      1            -0.0959
      8 Br1        18.6552   14.8487   64.6060 Br        1            -0.0215
      9 C7         20.5730   12.8009   64.0899 C.ar      1             0.0807
     10 N2         21.7589   12.3140   63.7812 N.ar      1            -0.4334
     11 C8         22.7863   13.0985   63.5232 C.ar      1             0.0433
     12 C9         24.4384   18.6372   61.6374 C.3       1             0.0975
     13 N3         23.1568   18.7670   60.9399 N.pl3     1            -0.4056
     14 C10        21.9408   19.0207   61.5151 C.2       1             0.0259
     15 C11        21.0378   19.0595   60.5168 C.2       1             0.0053
     16 N4         21.6847   18.8358   59.3633 N.pl3     1            -0.4755
     17 H1         21.2737   18.8091   58.4851 H         1             0.4659
     18 C12        22.9551   18.6648   59.6085 C.cat     1             0.2872
     19 H2         25.4860   16.6416   60.1040 H         1             0.0729
     20 H3         24.8406   15.2679   61.0340 H         1             0.0521
     21 H4         23.7268   16.4072   60.2405 H         1             0.0767
     22 H5         25.6169   17.0770   62.5418 H         1             0.0963
     23 H6         23.5205   17.3238   63.8427 H         1             0.0731
     24 H7         22.5790   16.8055   62.4238 H         1             0.0745
     25 H8         24.6497   14.9543   63.3695 H         1             0.4036
     26 H9         21.2805   16.0988   63.9530 H         1             0.1430
     27 H10        19.7553   12.1245   64.2898 H         1             0.1665
     28 H11        23.7411   12.6624   63.2693 H         1             0.1565
     29 H12        24.4262   19.2521   62.5373 H         1             0.1274
     30 H13        25.2440   18.9682   60.9820 H         1             0.1302
     31 H14        21.7436   19.1620   62.5675 H         1             0.2234
     32 H15        19.9786   19.2395   60.6259 H         1             0.2245
     33 H16        23.7181   18.4708   58.8693 H         1             0.2586
@<TRIPOS>BOND
     1    1    2 1 
     2    1   19 1 
     3    1   20 1 
     4    1   21 1 
     5    2    3 1 
     6    2   12 1 
     7    2   22 1 
     8    3    4 1 
     9    3   23 1 
    10    3   24 1 
    11    4    5 1 
    12    4   25 1 
    13    5   11 ar
    14    5    6 ar
    15    6    7 ar
    16    6   26 1 
    17    7    8 1 
    18    7    9 ar
    19    9   10 ar
    20    9   27 1 
    21   10   11 ar
    22   11   28 1 
    23   12   13 1 
    24   12   29 1 
    25   12   30 1 
    26   13   18 1 
    27   13   14 1 
    28   14   15 2 
    29   14   31 1 
    30   15   16 1 
    31   15   32 1 
    32   16   17 1 
    33   16   18 2 
    34   18   33 1 
##########                 Name:            E46142020
##########          Protonation:                   53
##########               SMILES:   c1cc(cnc1)CO[C@H]2C[C@@H]3C[NH+](CCN3C2)CC4CC4
##########            Long Name:   )-7-(3-pyridylmethoxy)-1,2,3,4,6,7,8,8a-octahydropyrrolo[1,2-a]pyrazin-2-ium
##########          FlexRecCode: 1
##########               Number:                  482
##########   Ligand Source File: /raidb/db2/rgc/leads-emolecules-300/leads-emolecules-2c-0000127.db2.gz
##########           GlobalRank: 2220
##########                 Rank:                    1
##########               Setnum:                  182
##########             Matchnum:                 2287
##########                Cloud:                    1
##########        Electrostatic:           -22.274364
##########        Van der Waals:           -23.539482
##########  Ligand Polar Desolv:             6.142205
########## Ligand Apolar Desolv:            -1.712492
##########      Internal Energy:             0.000000
##########      Receptor Energy: 0.0
########## Receptor Desolvation:             0.000000
########## Receptor Hydrophobic:             0.000000
##########         Total Energy: -41.38
##########        Ligand Charge:             1.000000
##########            Arbitrary:    +999.9990
##########     heavy atom count:   21
##########           pose count:    1
##########        Ligand Energy:             0.000000
# num electro vdwattr vdwrepu polsolv apolsol rdesolv rhydroe totalscore fullpol fullapo
#   1   -0.01   -1.10    0.22    0.62   -0.05    0.00    0.00      -0.32    1.43   -0.12
#   2    1.48   -1.21    0.45   -1.85    0.47    0.00    0.00      -0.65   -4.99    1.28
#   3   -0.59   -0.60    0.05    0.31   -0.05    0.00    0.00      -0.88    0.99   -0.15
#   4    1.11   -0.70    0.10   -0.79   -0.08    0.00    0.00      -0.37   -2.42   -0.26
#   5   -1.06   -1.09    0.33    0.61   -0.13    0.00    0.00      -1.34    1.73   -0.36
#   6    0.70   -0.77    0.25   -0.17   -0.08    0.00    0.00      -0.07   -0.64   -0.30
#   7    8.42   -1.83    2.36   -3.43    0.09    0.00    0.00       5.61  -11.20    0.28
#   8  -16.52   -0.25    0.23    4.83    0.18    0.00    0.00     -11.53   14.84    0.54
#   9   -0.29   -0.55    0.09    0.36   -0.09    0.00    0.00      -0.49    1.45   -0.38
#  10    1.61   -0.70    0.10   -1.04   -0.11    0.00    0.00      -0.14   -3.46   -0.36
#  11    0.68   -0.47    0.02   -1.21   -0.12    0.00    0.00      -1.10   -4.22   -0.43
#  12    1.70   -0.91    0.23   -1.33   -0.14    0.00    0.00      -0.45   -4.22   -0.43
#  13    1.11   -1.06    0.24   -0.30   -0.13    0.00    0.00      -0.14   -0.84   -0.37
#  14   -0.78   -1.10    0.21    0.34   -0.19    0.00    0.00      -1.53    0.78   -0.45
#  15    8.66   -1.19    0.12   -4.80    1.34    0.00    0.00       4.14  -12.08    3.37
#  16   -0.08   -0.62    0.03    0.15   -0.16    0.00    0.00      -0.68    0.40   -0.41
#  17   -0.36   -1.75    0.44   -0.57   -0.20    0.00    0.00      -2.44   -1.13   -0.39
#  18    0.33   -2.52    0.66    0.20   -0.55    0.00    0.00      -1.88    0.35   -0.95
#  19   -2.27   -3.46    1.13   -0.85    1.33    0.00    0.00      -4.12   -1.31    2.05
#  20    0.30   -2.65    0.63    0.08   -0.63    0.00    0.00      -2.27    0.13   -0.98
#  21   -1.00   -1.78    0.29   -0.72   -0.29    0.00    0.00      -3.50   -1.20   -0.48
#  22   -0.29   -1.61    0.32   -0.31   -0.24    0.00    0.00      -2.14   -0.59   -0.46
#  23    0.02   -0.51    0.26    0.43   -0.09    0.00    0.00       0.10    1.29   -0.28
#  24    0.07   -0.40    0.09    0.42   -0.10    0.00    0.00       0.09    1.19   -0.28
#  25   -0.52   -0.26    0.07    0.41   -0.05    0.00    0.00      -0.35    2.15   -0.27
#  26   -0.64   -0.12    0.00    0.45   -0.04    0.00    0.00      -0.35    3.18   -0.26
#  27   -0.90   -0.44    0.25    0.12   -0.09    0.00    0.00      -1.06    0.37   -0.27
#  28   -3.33   -1.03    1.59    1.23   -0.11    0.00    0.00      -1.65    3.03   -0.28
#  29   -1.33   -0.11    0.00    0.54   -0.03    0.00    0.00      -0.92    4.70   -0.24
#  30   -1.86   -0.23    0.06    1.05   -0.05    0.00    0.00      -1.02    6.22   -0.28
#  31   -0.87   -0.11    0.00    0.55   -0.03    0.00    0.00      -0.45    5.00   -0.28
#  32   -0.92   -0.12    0.01    0.67   -0.03    0.00    0.00      -0.39    5.23   -0.26
#  33   -0.70   -0.35    0.11    1.13   -0.07    0.00    0.00       0.12    3.87   -0.23
#  34   -0.13   -0.12    0.01    0.30   -0.03    0.00    0.00       0.02    2.45   -0.28
#  35   -0.35   -0.19    0.03    0.20   -0.05    0.00    0.00      -0.37    1.11   -0.28
#  36   -1.55   -0.58    0.45    0.25   -0.07    0.00    0.00      -1.50    0.96   -0.28
#  37   -1.63   -0.31    0.08    0.47   -0.06    0.00    0.00      -1.45    2.05   -0.28
#  38   -2.12   -0.36    0.17    1.05   -0.05    0.00    0.00      -1.32    4.37   -0.22
#  39   -3.66   -0.49    0.21    1.68   -0.07    0.00    0.00      -2.34    4.93   -0.22
#  40   -2.48   -0.31    0.04    0.60   -0.09    0.00    0.00      -2.25    1.79   -0.28
#  41   -3.28   -0.76    0.77    1.13   -0.12    0.00    0.00      -2.26    2.67   -0.28
#  42   -0.60   -0.21    0.01    0.16   -0.07    0.00    0.00      -0.72    0.61   -0.28
#  43   -0.51   -0.22    0.02    0.69   -0.05    0.00    0.00      -0.08    2.92   -0.20
#  44   -0.03   -0.68    0.32    0.62   -0.13    0.00    0.00       0.11    1.30   -0.28
#  45   -0.12   -0.97    0.81    0.58   -0.17    0.00    0.00       0.14    0.94   -0.28
#  46    1.17   -0.39    0.10    0.60   -0.11    0.00    0.00       1.38    1.59   -0.28
#  47    1.13   -0.32    0.06    0.66   -0.09    0.00    0.00       1.43    2.00   -0.28
@<TRIPOS>MOLECULE
E46142020
   47    50     0     0     0
SMALL
USER_CHARGES


@<TRIPOS>ATOM
      1 C1         23.1197   15.5449   63.5644 C.3       1             0.1080
      2 O1         23.4542   15.8089   62.2003 O.3       1            -0.3584
      3 C2         24.2099   17.0065   62.0086 C.3       1             0.0842
      4 C3         24.8533   17.0156   60.6056 C.3       1            -0.1167
      5 C4         24.2726   18.2726   59.9086 C.3       1             0.0571
      6 C5         25.2337   19.4316   60.1831 C.3       1            -0.0427
      7 N1         24.6117   20.7102   59.8250 N.4       1            -0.3780
      8 H1         24.3357   20.6919   58.8546 H         1             0.4259
      9 C6         25.5698   21.8021   60.0439 C.3       1             0.0278
     10 C7         25.1408   23.0271   59.2337 C.3       1            -0.2156
     11 C8         25.4747   24.4056   59.8071 C.3       1            -0.1657
     12 C9         24.0293   23.9039   59.8140 C.3       1            -0.1489
     13 C10        23.4259   20.9142   60.6712 C.3       1            -0.0505
     14 C11        22.4129   19.8106   60.3643 C.3       1             0.0333
     15 N2         22.9881   18.4972   60.6042 N.3       1            -0.5102
     16 C12        23.2772   18.2397   62.0308 C.3       1             0.0083
     17 C13        21.9560   14.5891   63.6202 C.ar      1            -0.1533
     18 C14        22.1725   13.2245   63.6592 C.ar      1             0.1229
     19 N3         21.1594   12.3820   63.7086 N.ar      1            -0.4851
     20 C15        19.9090   12.8010   63.7229 C.ar      1             0.1109
     21 C16        19.6155   14.1509   63.6861 C.ar      1            -0.1732
     22 C17        20.6550   15.0674   63.6390 C.ar      1            -0.0530
     23 H2         23.9782   15.1023   64.0697 H         1             0.0641
     24 H3         22.8480   16.4775   64.0589 H         1             0.0634
     25 H4         24.9760   17.0973   62.7787 H         1             0.0797
     26 H5         25.9375   17.0935   60.6862 H         1             0.0925
     27 H6         24.5770   16.1156   60.0560 H         1             0.1089
     28 H7         24.1248   18.1061   58.8416 H         1             0.1280
     29 H8         25.4922   19.4415   61.2419 H         1             0.1276
     30 H9         26.1401   19.2948   59.5933 H         1             0.1387
     31 H10        25.5940   22.0573   61.1033 H         1             0.1287
     32 H11        26.5621   21.4842   59.7239 H         1             0.1306
     33 H12        25.1758   22.9101   58.1505 H         1             0.1251
     34 H13        26.0002   24.4399   60.7615 H         1             0.1065
     35 H14        25.7297   25.1960   59.1012 H         1             0.1108
     36 H15        23.3335   24.3641   59.1126 H         1             0.1126
     37 H16        23.6038   23.6081   60.7729 H         1             0.1075
     38 H17        23.7131   20.8656   61.7216 H         1             0.1284
     39 H18        22.9845   21.8869   60.4542 H         1             0.1401
     40 H19        21.5377   19.9403   61.0011 H         1             0.1249
     41 H20        22.1091   19.8834   59.3200 H         1             0.1059
     42 H21        22.3584   18.0137   62.5720 H         1             0.1056
     43 H22        23.7848   19.0944   62.4780 H         1             0.0530
     44 H23        23.1831   12.8438   63.6487 H         1             0.1536
     45 H24        19.1051   12.0810   63.7634 H         1             0.1610
     46 H25        18.5894   14.4878   63.6979 H         1             0.1407
     47 H26        20.4557   16.1286   63.6140 H         1             0.1353
@<TRIPOS>BOND
     1    1    2 1 
     2    1   17 1 
     3    1   23 1 
     4    1   24 1 
     5    2    3 1 
     6    3   16 1 
     7    3    4 1 
     8    3   25 1 
     9    4    5 1 
    10    4   26 1 
    11    4   27 1 
    12    5   15 1 
    13    5    6 1 
    14    5   28 1 
    15    6    7 1 
    16    6   29 1 
    17    6   30 1 
    18    7    8 1 
    19    7    9 1 
    20    7   13 1 
    21    9   10 1 
    22    9   31 1 
    23    9   32 1 
    24   10   12 1 
    25   10   11 1 
    26   10   33 1 
    27   11   12 1 
    28   11   34 1 
    29   11   35 1 
    30   12   36 1 
    31   12   37 1 
    32   13   14 1 
    33   13   38 1 
    34   13   39 1 
    35   14   15 1 
    36   14   40 1 
    37   14   41 1 
    38   15   16 1 
    39   16   42 1 
    40   16   43 1 
    41   17   22 ar
    42   17   18 ar
    43   18   19 ar
    44   18   44 1 
    45   19   20 ar
    46   20   21 ar
    47   20   45 1 
    48   21   22 ar
    49   21   46 1 
    50   22   47 1 
##########                 Name:            E44358749
##########          Protonation:                   33
##########               SMILES:   c1cn[nH]c1C[NH+]2C[C@H]3CCN(C[C@@H]3C2)c4cnccn4
##########            Long Name:   H-pyrazol-5-ylmethyl)-1,2,3,3a,4,6,7,7a-octahydropyrrolo[3,4-c]pyridin-2-ium
##########          FlexRecCode: 1
##########               Number:                   10
##########   Ligand Source File: /raidb/db2/rgc/leads-emolecules-300/leads-emolecules-2a-0000160.db2.gz
##########           GlobalRank: 2241
##########                 Rank:                    1
##########               Setnum:                   23
##########             Matchnum:                 2196
##########                Cloud:                    1
##########        Electrostatic:           -25.484032
##########        Van der Waals:           -22.553627
##########  Ligand Polar Desolv:             8.038301
########## Ligand Apolar Desolv:            -1.359945
##########      Internal Energy:             0.000000
##########      Receptor Energy: 0.0
########## Receptor Desolvation:             0.000000
########## Receptor Hydrophobic:             0.000000
##########         Total Energy: -41.36
##########        Ligand Charge:             1.000000
##########            Arbitrary:    +999.9990
##########     heavy atom count:   21
##########           pose count:    1
##########        Ligand Energy:             0.000000
# num electro vdwattr vdwrepu polsolv apolsol rdesolv rhydroe totalscore fullpol fullapo
#   1   -0.88   -0.56    0.11    0.68   -0.08    0.00    0.00      -0.73    2.99   -0.36
#   2    7.03   -1.04    0.31   -3.84    0.14    0.00    0.00       2.60  -12.62    0.45
#   3  -11.87   -0.06    0.01    4.92    0.17    0.00    0.00      -6.83   15.83    0.56
#   4   -0.01   -0.64    0.05    0.33   -0.17    0.00    0.00      -0.45    0.92   -0.47
#   5    1.10   -0.69    0.04   -1.14   -0.06    0.00    0.00      -0.75   -3.06   -0.16
#   6    0.73   -1.17    0.21   -1.12   -0.11    0.00    0.00      -1.46   -2.56   -0.25
#   7    0.17   -1.77    1.02    0.81   -0.22    0.00    0.00       0.03    1.73   -0.46
#   8   -0.03   -1.42    0.20   -3.84    0.71    0.00    0.00      -4.38   -9.16    1.69
#   9   -0.59   -0.77    0.12    0.85   -0.16    0.00    0.00      -0.55    2.36   -0.45
#  10    1.19   -0.69    0.10   -1.01   -0.06    0.00    0.00      -0.46   -3.08   -0.17
#  11   -0.10   -0.61    0.06    0.22   -0.11    0.00    0.00      -0.54    0.73   -0.37
#  12    0.92   -1.66    0.47    1.61   -0.95    0.00    0.00       0.39    3.38   -1.99
#  13    0.00   -2.05    0.54   -0.20   -0.49    0.00    0.00      -2.20   -0.37   -0.91
#  14   -1.72   -2.93    0.74   -1.28    1.29    0.00    0.00      -3.89   -2.04    2.06
#  15   -0.01   -2.55    0.53   -0.34   -0.63    0.00    0.00      -2.99   -0.53   -0.97
#  16    0.59   -1.80    0.29    0.46   -0.59    0.00    0.00      -1.05    0.77   -0.98
#  17   -3.21   -1.56    0.23   -2.30    0.93    0.00    0.00      -5.91   -4.40    1.78
#  18   -0.01   -1.11    0.24    0.54   -0.18    0.00    0.00      -0.52    1.94   -0.66
#  19    0.39   -0.50    0.02   -1.08   -0.10    0.00    0.00      -1.27   -5.34   -0.49
#  20    0.00   -0.93    0.11   -0.04   -0.31    0.00    0.00      -1.16   -0.12   -1.05
#  21    0.17   -3.36    2.63   -2.14    0.54    0.00    0.00      -2.18   -5.19    1.30
#  22    4.01   -4.30    4.57   -3.70    0.28    0.00    0.00       0.87   -9.24    0.71
#  23   -1.89   -0.19    0.05    1.05   -0.04    0.00    0.00      -1.02    7.31   -0.28
#  24   -1.09   -0.09    0.00    0.71   -0.03    0.00    0.00      -0.49    7.40   -0.27
#  25   -1.89   -0.20    0.02    1.44   -0.05    0.00    0.00      -0.68    7.25   -0.26
#  26   -2.92   -0.23    0.02    1.44   -0.08    0.00    0.00      -1.77    5.37   -0.28
#  27   -0.81   -0.33    0.07    1.07   -0.07    0.00    0.00      -0.07    3.95   -0.27
#  28   -0.76   -0.73    0.31    1.33   -0.13    0.00    0.00       0.02    2.96   -0.28
#  29   -0.61   -0.30    0.07    0.38   -0.08    0.00    0.00      -0.54    1.35   -0.28
#  30    0.11   -0.91    0.69    0.85   -0.14    0.00    0.00       0.59    1.72   -0.28
#  31    0.76   -0.99    1.85    0.36   -0.08    0.00    0.00       1.89    0.87   -0.20
#  32   -0.30   -0.26    0.04    0.52   -0.06    0.00    0.00      -0.06    2.32   -0.28
#  33   -0.48   -0.32    0.16    0.21   -0.06    0.00    0.00      -0.49    0.84   -0.24
#  34   -1.20   -0.36    0.17    0.52   -0.08    0.00    0.00      -0.95    1.91   -0.28
#  35   -1.49   -0.33    0.09    1.12   -0.08    0.00    0.00      -0.70    3.73   -0.28
#  36   -1.04   -0.11    0.00    0.59   -0.03    0.00    0.00      -0.59    5.57   -0.26
#  37   -0.23   -0.39    0.08    0.75   -0.08    0.00    0.00       0.12    1.92   -0.21
#  38   -0.24   -0.91    0.64    0.81   -0.17    0.00    0.00       0.13    1.30   -0.28
#  39    1.27   -0.46    0.21    0.91   -0.11    0.00    0.00       1.82    2.32   -0.28
#  40   -0.15   -0.05    0.00    0.22   -0.01    0.00    0.00       0.02    4.86   -0.28
#  41    0.11   -0.12    0.01    0.27   -0.03    0.00    0.00       0.24    2.22   -0.28
#  42  -10.51   -0.31    0.13    5.11    0.19    0.00    0.00      -5.38   10.51    0.40
@<TRIPOS>MOLECULE
E44358749
   42    45     0     0     0
SMALL
USER_CHARGES


@<TRIPOS>ATOM
      1 C1         25.9941   19.5969   60.1963 C.3       1             0.0729
      2 N1         24.6845   18.9315   60.2050 N.4       1            -0.3969
      3 H1         24.2797   18.9635   59.2812 H         1             0.4254
      4 C2         23.7831   19.6118   61.1709 C.3       1             0.0008
      5 C3         23.4632   18.5769   62.2430 C.3       1            -0.1154
      6 C4         22.0754   18.6194   62.8498 C.3       1            -0.1201
      7 C5         21.9968   17.4757   63.8785 C.3       1             0.1197
      8 N2         22.4335   16.2092   63.2843 N.pl3     1            -0.6079
      9 C6         23.6769   16.1354   62.4880 C.3       1             0.1426
     10 C7         23.5779   17.2418   61.4505 C.3       1            -0.1319
     11 C8         24.8439   17.5137   60.6349 C.3       1             0.0088
     12 C9         21.6696   15.0633   63.4722 C.ar      1             0.3447
     13 C10        22.2818   13.8119   63.4993 C.ar      1            -0.0005
     14 N3         21.5528   12.7271   63.6777 N.ar      1            -0.4003
     15 C11        20.2427   12.8262   63.8308 C.ar      1            -0.0047
     16 C12        19.6319   14.0652   63.8045 C.ar      1             0.1038
     17 N4         20.3560   15.1583   63.6315 N.ar      1            -0.5009
     18 C13        26.9084   18.8939   59.2264 C.2       1             0.0013
     19 C14        28.1969   18.5478   59.4522 C.2       1            -0.2099
     20 C15        28.6812   17.9171   58.3016 C.2       1             0.0543
     21 N5         27.7180   17.8855   57.4166 N.2       1            -0.2452
     22 N6         26.5871   18.4915   57.9790 N.pl3     1            -0.4642
     23 H2         25.8716   20.6363   59.8920 H         1             0.1419
     24 H3         26.4272   19.5597   61.1961 H         1             0.1549
     25 H4         24.2874   20.4697   61.6155 H         1             0.1392
     26 H5         22.8684   19.9303   60.6711 H         1             0.1354
     27 H6         24.2193   18.6093   63.0273 H         1             0.1090
     28 H7         21.9157   19.5770   63.3457 H         1             0.0976
     29 H8         21.3251   18.4726   62.0728 H         1             0.0817
     30 H9         22.6373   17.7129   64.7280 H         1             0.0762
     31 H10        20.9679   17.3739   64.2235 H         1             0.0962
     32 H11        24.5432   16.2985   63.1291 H         1             0.0768
     33 H12        23.7503   15.1654   61.9960 H         1             0.1115
     34 H13        22.7119   17.0930   60.8056 H         1             0.1115
     35 H14        24.8904   16.8530   59.7691 H         1             0.1382
     36 H15        25.7328   17.3984   61.2552 H         1             0.1388
     37 H16        23.3514   13.7304   63.3740 H         1             0.1651
     38 H17        19.6487   11.9361   63.9763 H         1             0.1720
     39 H18        18.5620   14.1416   63.9299 H         1             0.1739
     40 H19        28.7531   18.7271   60.3605 H         1             0.1616
     41 H20        29.6781   17.5244   58.1667 H         1             0.1990
     42 H21        25.7258   18.6040   57.5472 H         1             0.4433
@<TRIPOS>BOND
     1    1    2 1 
     2    1   18 1 
     3    1   23 1 
     4    1   24 1 
     5    2    3 1 
     6    2   11 1 
     7    2    4 1 
     8    4    5 1 
     9    4   25 1 
    10    4   26 1 
    11    5   10 1 
    12    5    6 1 
    13    5   27 1 
    14    6    7 1 
    15    6   28 1 
    16    6   29 1 
    17    7    8 1 
    18    7   30 1 
    19    7   31 1 
    20    8    9 1 
    21    8   12 1 
    22    9   10 1 
    23    9   32 1 
    24    9   33 1 
    25   10   11 1 
    26   10   34 1 
    27   11   35 1 
    28   11   36 1 
    29   12   17 ar
    30   12   13 ar
    31   13   14 ar
    32   13   37 1 
    33   14   15 ar
    34   15   16 ar
    35   15   38 1 
    36   16   17 ar
    37   16   39 1 
    38   18   22 1 
    39   18   19 2 
    40   19   20 1 
    41   19   40 1 
    42   20   21 2 
    43   20   41 1 
    44   21   22 1 
    45   22   42 1 
##########                 Name:            E48235043
##########          Protonation:                   27
##########               SMILES:   C[C@H](C/[NH+]=C(/NC)\NCc1cccc(c1)C(F)(F)F)O
##########            Long Name:   pyl]-[methylamino-[[3-(trifluoromethyl)phenyl]methylamino]methylene]ammonium
##########          FlexRecCode: 1
##########               Number:                  348
##########   Ligand Source File: /raidb/db2/rgc/leads-emolecules-300/leads-emolecules-3-ct-0000013.db2.gz
##########           GlobalRank: 2241
##########                 Rank:                    1
##########               Setnum:                   89
##########             Matchnum:                 2767
##########                Cloud:                    1
##########        Electrostatic:           -23.939857
##########        Van der Waals:           -20.204887
##########  Ligand Polar Desolv:             5.195937
########## Ligand Apolar Desolv:            -2.411549
##########      Internal Energy:             0.000000
##########      Receptor Energy: 0.0
########## Receptor Desolvation:             0.000000
########## Receptor Hydrophobic:             0.000000
##########         Total Energy: -41.36
##########        Ligand Charge:             1.000000
##########            Arbitrary:    +999.9990
##########     heavy atom count:   20
##########           pose count:    1
##########        Ligand Energy:             0.000000
# num electro vdwattr vdwrepu polsolv apolsol rdesolv rhydroe totalscore fullpol fullapo
#   1   -1.62   -2.02    1.17    0.62   -0.26    0.00    0.00      -2.11    1.27   -0.53
#   2   12.61   -1.14    0.07   -7.79    0.77    0.00    0.00       4.52  -18.34    1.82
#   3  -10.79   -0.89    0.05    6.51   -1.61    0.00    0.00      -6.72   19.15   -4.73
#   4    6.29   -1.34    0.20   -6.04    0.56    0.00    0.00      -0.34  -18.25    1.68
#   5   -0.78   -1.52    0.33    1.69   -0.17    0.00    0.00      -0.45    3.87   -0.39
#   6    0.29   -1.75    0.32   -0.81   -0.16    0.00    0.00      -2.11   -1.90   -0.37
#   7    0.17   -2.21    1.04   -0.34   -0.17    0.00    0.00      -1.52   -0.90   -0.45
#   8    0.14   -2.01    0.74   -0.88   -0.20    0.00    0.00      -2.21   -2.07   -0.47
#   9   -0.02   -1.95    0.56   -0.58   -0.21    0.00    0.00      -2.21   -1.20   -0.44
#  10   -0.48   -1.67    0.40   -1.18   -0.17    0.00    0.00      -3.11   -2.53   -0.37
#  11   -0.09   -1.77    0.45   -0.38   -0.20    0.00    0.00      -1.98   -0.86   -0.44
#  12    2.60   -1.05    0.17    2.17   -0.04    0.00    0.00       3.84    3.72   -0.07
#  13   -0.62   -1.05    0.10   -0.69   -0.28    0.00    0.00      -2.53   -1.11   -0.44
#  14   -1.46   -1.11    0.33   -0.77   -0.26    0.00    0.00      -3.27   -1.42   -0.48
#  15   -0.89   -1.24    0.57   -0.70   -0.26    0.00    0.00      -2.51   -1.31   -0.48
#  16   11.57   -1.17    0.33   -4.75    0.46    0.00    0.00       6.45  -16.32    1.58
#  17  -13.06   -0.07    0.01    2.93    0.12    0.00    0.00     -10.07   11.17    0.45
#  18   -0.83   -0.38    0.02    0.45   -0.07    0.00    0.00      -0.81    2.22   -0.35
#  19   -0.64   -0.54    0.09    0.42   -0.04    0.00    0.00      -0.71    1.87   -0.16
#  20    0.86   -0.87    0.18   -1.04   -0.06    0.00    0.00      -0.94   -3.43   -0.20
#  21    6.49   -2.21    2.41   -3.23    0.50    0.00    0.00       3.96  -10.90    1.69
#  22   -2.22   -0.69    0.43    1.01   -0.12    0.00    0.00      -1.58    2.28   -0.27
#  23   -2.86   -1.12    2.10    0.88   -0.12    0.00    0.00      -1.12    2.03   -0.27
#  24   -3.64   -0.87    0.59    1.41   -0.14    0.00    0.00      -2.66    2.87   -0.28
#  25   -5.75   -0.02    0.00    2.96    0.12    0.00    0.00      -2.69   12.57    0.49
#  26   -3.44   -0.03    0.00    2.59    0.10    0.00    0.00      -0.77   11.50    0.45
#  27   -0.27   -1.24    1.09    1.80   -0.14    0.00    0.00       1.24    3.58   -0.27
#  28   -0.69   -0.42    0.07    1.60   -0.11    0.00    0.00       0.46    4.04   -0.27
#  29   -0.85   -0.68    0.76    1.15   -0.08    0.00    0.00       0.31    4.31   -0.28
#  30   -0.32   -0.35    0.07    0.73   -0.09    0.00    0.00       0.05    2.36   -0.28
#  31    0.12   -0.46    0.10    0.47   -0.11    0.00    0.00       0.11    1.02   -0.25
#  32    0.82   -0.44    0.17    0.98   -0.09    0.00    0.00       1.44    2.93   -0.28
#  33   -0.65   -0.09    0.00    0.37   -0.03    0.00    0.00      -0.40    3.76   -0.27
#  34   -0.70   -0.09    0.00    0.23   -0.02    0.00    0.00      -0.58    2.57   -0.27
#  35   -0.17   -0.07    0.00    0.15   -0.02    0.00    0.00      -0.12    1.90   -0.28
#  36   -0.01   -0.35    0.09    0.23   -0.08    0.00    0.00      -0.12    0.83   -0.28
#  37   -0.16   -0.11    0.00    0.09   -0.04    0.00    0.00      -0.21    0.71   -0.28
#  38   -0.80   -0.60    0.37    0.50   -0.09    0.00    0.00      -0.62    1.51   -0.28
#  39  -12.08   -0.27    0.26    2.43    0.38    0.00    0.00      -9.29    7.77    1.22
@<TRIPOS>MOLECULE
E48235043
   39    39     0     0     0
SMALL
USER_CHARGES


@<TRIPOS>ATOM
      1 C1         22.2257   19.3327   59.4329 C.3       1             0.0572
      2 N1         22.6245   19.1019   60.8236 N.pl3     1            -0.6982
      3 C2         23.9423   19.2355   61.1920 C.cat     1             0.7219
      4 N2         24.3164   19.0189   62.4971 N.pl3     1            -0.6965
      5 C3         23.3111   18.6458   63.4951 C.3       1             0.1474
      6 C4         23.1869   17.1447   63.5462 C.ar      1            -0.1361
      7 C5         24.3231   16.3575   63.5688 C.ar      1            -0.0609
      8 C6         24.2092   14.9808   63.6158 C.ar      1            -0.1151
      9 C7         22.9589   14.3912   63.6406 C.ar      1            -0.0460
     10 C8         21.8231   15.1782   63.6189 C.ar      1            -0.1790
     11 C9         21.9370   16.5554   63.5763 C.ar      1            -0.0441
     12 C10        20.4603   14.5354   63.6455 C.3       1             0.5069
     13 F1         20.6017   13.1443   63.6911 F         1            -0.1709
     14 F2         19.7615   14.9705   64.7765 F         1            -0.1747
     15 F3         19.7528   14.8946   62.4932 F         1            -0.1720
     16 N3         24.8367   19.5674   60.3040 N.pl3     1            -0.6490
     17 H1         24.5728   19.7202   59.3832 H         1             0.4404
     18 C11        26.2411   19.7098   60.6966 C.3       1             0.0914
     19 C12        27.0748   20.1026   59.4753 C.3       1             0.0913
     20 C13        27.3667   18.8575   58.6353 C.3       1            -0.1908
     21 O1         26.3495   21.0491   58.6880 O.3       1            -0.5706
     22 H2         21.1508   19.1812   59.3332 H         1             0.0824
     23 H3         22.4764   20.3544   59.1478 H         1             0.0845
     24 H4         22.7529   18.6343   58.7830 H         1             0.1166
     25 H5         21.9587   18.8549   61.4843 H         1             0.4349
     26 H6         25.2462   19.1131   62.7570 H         1             0.4325
     27 H7         23.6143   19.0188   64.4734 H         1             0.1007
     28 H8         22.3495   19.0809   63.2225 H         1             0.1023
     29 H9         25.2997   16.8181   63.5495 H         1             0.1389
     30 H10        25.0969   14.3658   63.6327 H         1             0.1467
     31 H11        22.8700   13.3154   63.6765 H         1             0.1490
     32 H12        21.0495   17.1706   63.5631 H         1             0.1392
     33 H13        26.3282   20.4828   61.4600 H         1             0.1111
     34 H14        26.6046   18.7627   61.0953 H         1             0.1051
     35 H15        28.0139   20.5473   59.8043 H         1             0.0753
     36 H16        27.9606   19.1373   57.7652 H         1             0.0740
     37 H17        27.9201   18.1356   59.2359 H         1             0.0785
     38 H18        26.4275   18.4126   58.3064 H         1             0.0764
     39 H19        25.5011   20.7203   58.3606 H         1             0.3994
@<TRIPOS>BOND
     1    1    2 1 
     2    1   22 1 
     3    1   23 1 
     4    1   24 1 
     5    2    3 1 
     6    2   25 1 
     7    3    4 1 
     8    3   16 2 
     9    4    5 1 
    10    4   26 1 
    11    5    6 1 
    12    5   27 1 
    13    5   28 1 
    14    6   11 ar
    15    6    7 ar
    16    7    8 ar
    17    7   29 1 
    18    8    9 ar
    19    8   30 1 
    20    9   10 ar
    21    9   31 1 
    22   10   11 ar
    23   10   12 1 
    24   11   32 1 
    25   12   13 1 
    26   12   14 1 
    27   12   15 1 
    28   16   17 1 
    29   16   18 1 
    30   18   19 1 
    31   18   33 1 
    32   18   34 1 
    33   19   20 1 
    34   19   21 1 
    35   19   35 1 
    36   20   36 1 
    37   20   37 1 
    38   20   38 1 
    39   21   39 1 
##########                 Name:             E1511383
##########          Protonation:                   17
##########               SMILES:   c1ccc(cc1)c2c3cc(ccc3nc(n2)NC(=[NH2+])N)F
##########            Long Name:   [amino-[(6-fluoro-4-phenyl-quinazolin-2-yl)amino]methylene]ammonium
##########          FlexRecCode: 1
##########               Number:                  570
##########   Ligand Source File: /raidb/db2/rgc/leads-emolecules-300/leads-lt300-emolecules-1j-0000209.db2.gz
##########           GlobalRank: 2241
##########                 Rank:                    1
##########               Setnum:                    5
##########             Matchnum:                 4830
##########                Cloud:                    1
##########        Electrostatic:           -21.743530
##########        Van der Waals:           -22.921516
##########  Ligand Polar Desolv:             7.188508
########## Ligand Apolar Desolv:            -3.885679
##########      Internal Energy:             0.000000
##########      Receptor Energy: 0.0
########## Receptor Desolvation:             0.000000
########## Receptor Hydrophobic:             0.000000
##########         Total Energy: -41.36
##########        Ligand Charge:             1.000000
##########            Arbitrary:    +999.9990
##########     heavy atom count:   21
##########           pose count:    1
##########        Ligand Energy:             0.000000
# num electro vdwattr vdwrepu polsolv apolsol rdesolv rhydroe totalscore fullpol fullapo
#   1   20.50   -2.18    1.24   -8.11    0.30    0.00    0.00      11.76  -20.82    0.78
#   2  -16.47   -1.60    0.36    8.01   -1.93    0.00    0.00     -11.62   20.67   -4.99
#   3   17.04   -2.58    2.38   -7.78    0.33    0.00    0.00       9.39  -21.78    0.92
#   4   -8.42   -0.02    0.00    3.91    0.16    0.00    0.00      -4.37   14.73    0.60
#   5  -11.91   -0.22    0.17    4.68    0.19    0.00    0.00      -7.08   14.21    0.59
#   6    9.60   -2.09    0.71   -6.05    0.48    0.00    0.00       2.65  -14.13    1.11
#   7   -4.88   -1.21    0.10    4.16   -2.03    0.00    0.00      -3.85    9.70   -4.73
#   8    0.94   -1.80    0.61   -4.15    0.58    0.00    0.00      -3.82   -9.19    1.29
#   9    0.32   -1.54    0.37    1.15   -0.31    0.00    0.00      -0.02    2.69   -0.73
#  10   -0.60   -1.67    0.33   -0.42   -0.23    0.00    0.00      -2.57   -0.87   -0.47
#  11   -0.43   -1.63    0.30   -0.82   -0.27    0.00    0.00      -2.86   -1.41   -0.47
#  12    0.30   -2.00    0.66    0.33   -0.20    0.00    0.00      -0.91    0.57   -0.34
#  13   -0.61   -1.79    0.50   -0.77   -0.30    0.00    0.00      -2.97   -1.22   -0.48
#  14    0.07   -1.96    1.12   -0.59   -0.18    0.00    0.00      -1.54   -1.29   -0.40
#  15    0.24   -1.54    0.70   -0.81   -0.16    0.00    0.00      -1.56   -2.05   -0.40
#  16   -1.88   -1.05    0.13    1.21   -0.24    0.00    0.00      -1.82    3.52   -0.69
#  17    4.73   -0.89    0.04   -2.80    0.72    0.00    0.00       1.79   -7.69    1.97
#  18    0.46   -0.90    0.07   -0.28   -0.12    0.00    0.00      -0.78   -0.87   -0.36
#  19    0.46   -0.98    0.10   -0.32   -0.12    0.00    0.00      -0.86   -0.97   -0.35
#  20    0.24   -1.01    0.19   -0.39   -0.14    0.00    0.00      -1.11   -1.30   -0.47
#  21    0.13   -0.69    0.04   -0.28   -0.12    0.00    0.00      -0.92   -1.11   -0.47
#  22    0.27   -0.91    0.09   -0.40   -0.14    0.00    0.00      -1.08   -1.35   -0.47
#  23    0.22   -1.39    0.29   -0.28   -0.15    0.00    0.00      -1.31   -0.85   -0.45
#  24  -15.62   -0.11    0.03    4.36    0.20    0.00    0.00     -11.13   13.31    0.60
#  25  -10.54   -0.03    0.00    3.44    0.14    0.00    0.00      -6.98   10.75    0.44
#  26   -7.33   -0.08    0.01    5.00    0.25    0.00    0.00      -2.16   11.79    0.59
#  27    2.49   -0.42    0.16    1.70   -0.10    0.00    0.00       3.83    4.58   -0.28
#  28    0.86   -0.32    0.03    1.23   -0.12    0.00    0.00       1.68    2.86   -0.28
#  29   -0.55   -0.35    0.08    0.46   -0.07    0.00    0.00      -0.43    1.33   -0.19
#  30   -1.09   -0.28    0.05    0.44   -0.07    0.00    0.00      -0.95    1.54   -0.25
#  31   -0.02   -0.34    0.22    0.34   -0.06    0.00    0.00       0.13    1.55   -0.28
#  32   -0.04   -0.11    0.01    0.17   -0.03    0.00    0.00       0.00    1.47   -0.28
#  33   -0.12   -0.21    0.04    0.31   -0.05    0.00    0.00      -0.03    1.67   -0.28
#  34   -0.14   -0.66    0.50    0.56   -0.09    0.00    0.00       0.17    1.71   -0.28
@<TRIPOS>MOLECULE
E1511383
   34    36     0     0     0
SMALL
USER_CHARGES


@<TRIPOS>ATOM
      1 N1         23.4181   19.7328   59.8792 N.pl3     1            -0.7779
      2 C1         22.9976   20.4498   60.9193 C.cat     1             0.7663
      3 N2         23.3319   21.7347   61.0209 N.pl3     1            -0.7735
      4 H1         23.8817   22.1484   60.3372 H         1             0.4477
      5 H2         23.0256   22.2570   61.7787 H         1             0.4413
      6 N3         22.2203   19.8648   61.8863 N.pl3     1            -0.6037
      7 C2         22.3607   18.5120   62.1656 C.ar      1             0.5349
      8 N4         21.3065   17.8425   62.5892 N.ar      1            -0.5446
      9 C3         21.3997   16.5358   62.8692 C.ar      1             0.1843
     10 C4         20.2985   15.7939   63.3210 C.ar      1            -0.0800
     11 C5         20.4463   14.4667   63.5916 C.ar      1            -0.0864
     12 C6         21.6773   13.8322   63.4262 C.ar      1             0.1173
     13 F1         21.7906   12.5146   63.7028 F         1            -0.1188
     14 C7         22.7693   14.5251   62.9880 C.ar      1            -0.1084
     15 C8         22.6504   15.8895   62.7015 C.ar      1            -0.1380
     16 C9         23.7481   16.6598   62.2433 C.ar      1             0.3366
     17 N5         23.5499   17.9464   61.9893 N.ar      1            -0.5278
     18 C10        25.0798   16.0435   62.0485 C.ar      1            -0.0873
     19 C11        25.6816   16.0592   60.7898 C.ar      1            -0.0864
     20 C12        26.9230   15.4830   60.6148 C.ar      1            -0.1163
     21 C13        27.5711   14.8911   61.6843 C.ar      1            -0.0838
     22 C14        26.9791   14.8711   62.9345 C.ar      1            -0.1188
     23 C15        25.7410   15.4497   63.1241 C.ar      1            -0.0658
     24 H3         23.9695   20.1459   59.1965 H         1             0.4385
     25 H4         23.1763   18.7963   59.8062 H         1             0.4470
     26 H5         21.5724   20.3962   62.3750 H         1             0.4538
     27 H6         19.3393   16.2718   63.4541 H         1             0.1590
     28 H7         19.5971   13.8973   63.9398 H         1             0.1608
     29 H8         23.7178   14.0238   62.8639 H         1             0.1609
     30 H9         25.1766   16.5209   59.9542 H         1             0.1308
     31 H10        27.3898   15.4944   59.6409 H         1             0.1376
     32 H11        28.5422   14.4403   61.5418 H         1             0.1352
     33 H12        27.4895   14.4063   63.7651 H         1             0.1360
     34 H13        25.2823   15.4383   64.1018 H         1             0.1296
@<TRIPOS>BOND
     1    1    2 1 
     2    1   24 1 
     3    1   25 1 
     4    2    3 2 
     5    2    6 1 
     6    3    4 1 
     7    3    5 1 
     8    6    7 1 
     9    6   26 1 
    10    7   17 ar
    11    7    8 ar
    12    8    9 ar
    13    9   15 ar
    14    9   10 ar
    15   10   11 ar
    16   10   27 1 
    17   11   12 ar
    18   11   28 1 
    19   12   13 1 
    20   12   14 ar
    21   14   15 ar
    22   14   29 1 
    23   15   16 ar
    24   16   17 ar
    25   16   18 1 
    26   18   23 ar
    27   18   19 ar
    28   19   20 ar
    29   19   30 1 
    30   20   21 ar
    31   20   31 1 
    32   21   22 ar
    33   21   32 1 
    34   22   23 ar
    35   22   33 1 
    36   23   34 1 
##########                 Name:            E48254070
##########          Protonation:                  100
##########               SMILES:   c1ccc(cc1)COc2cncc(n2)N3CC[C@@H](C3)CCO
##########            Long Name:   2-[(3R)-1-(6-benzyloxypyrazin-2-yl)pyrrolidin-3-yl]ethanol
##########          FlexRecCode: 1
##########               Number:                  167
##########   Ligand Source File: /raidb/db2/rgc/leads-emolecules-300/leads-emolecules-3-ct-0000016.db2.gz
##########           GlobalRank: 2252
##########                 Rank:                    1
##########               Setnum:                  319
##########             Matchnum:                 3504
##########                Cloud:                    1
##########        Electrostatic:            -7.774769
##########        Van der Waals:           -34.992626
##########  Ligand Polar Desolv:             3.687075
########## Ligand Apolar Desolv:            -2.269253
##########      Internal Energy:             0.000000
##########      Receptor Energy: 0.0
########## Receptor Desolvation:             0.000000
########## Receptor Hydrophobic:             0.000000
##########         Total Energy: -41.35
##########        Ligand Charge:             0.000000
##########            Arbitrary:    +999.9990
##########     heavy atom count:   22
##########           pose count:    1
##########        Ligand Energy:             0.000000
# num electro vdwattr vdwrepu polsolv apolsol rdesolv rhydroe totalscore fullpol fullapo
#   1   12.53   -1.38    0.71   -0.02    0.55    0.00    0.00      12.39   -0.06    1.76
#   2   -1.89   -1.18    0.32    0.07   -0.05    0.00    0.00      -2.74    0.19   -0.14
#   3    1.81   -0.98    0.18   -0.06   -0.09    0.00    0.00       0.85   -0.15   -0.21
#   4    1.08   -0.64    0.04   -0.10   -0.08    0.00    0.00       0.29   -0.25   -0.19
#   5    1.10   -0.61    0.05   -0.19   -0.08    0.00    0.00       0.26   -0.58   -0.25
#   6   -0.53   -0.71    0.07    0.13   -0.17    0.00    0.00      -1.21    0.38   -0.50
#   7    0.94   -1.34    0.27    0.10    0.75    0.00    0.00       0.72    0.26    1.86
#   8   -0.34   -0.88    0.11   -0.01   -0.21    0.00    0.00      -1.34   -0.03   -0.49
#   9    0.67   -1.69    0.61   -0.62   -0.96    0.00    0.00      -1.99   -1.34   -2.06
#  10   -2.92   -1.57    0.27    1.64    1.47    0.00    0.00      -1.12    3.08    2.76
#  11    1.63   -1.82    0.29   -1.06   -0.39    0.00    0.00      -1.34   -1.76   -0.65
#  12   -1.74   -2.05    0.81    0.98    0.52    0.00    0.00      -1.49    1.66    0.87
#  13    1.31   -1.34    0.31   -0.28   -0.07    0.00    0.00      -0.07   -0.47   -0.11
#  14   -1.19   -2.40    0.73    0.27   -0.25    0.00    0.00      -2.85    0.42   -0.39
#  15   -1.45   -2.58    0.77    0.17   -0.28    0.00    0.00      -3.37    0.27   -0.45
#  16   -1.67   -2.47    0.63    0.09   -0.30    0.00    0.00      -3.72    0.14   -0.47
#  17   -0.92   -3.32    1.21    0.04   -0.31    0.00    0.00      -3.29    0.06   -0.47
#  18   -0.28   -4.15    1.56    0.09   -0.32    0.00    0.00      -3.09    0.14   -0.47
#  19   -0.45   -3.14    1.03    0.19   -0.29    0.00    0.00      -2.65    0.30   -0.45
#  20   -0.13   -2.93    0.97    0.18   -0.62    0.00    0.00      -2.53    0.28   -0.97
#  21   -1.50   -3.34    1.20    1.18    1.26    0.00    0.00      -1.20    1.95    2.07
#  22   -0.02   -2.11    0.59    0.07   -0.47    0.00    0.00      -1.95    0.13   -0.92
#  23  -11.22   -0.09    0.02    0.46    0.31    0.00    0.00     -10.51    1.82    1.24
#  24   -1.25   -0.47    0.17    0.09   -0.10    0.00    0.00      -1.56    0.26   -0.28
#  25   -1.43   -0.60    0.35    0.13   -0.10    0.00    0.00      -1.65    0.34   -0.26
#  26   -1.04   -0.48    0.24   -0.01   -0.08    0.00    0.00      -1.37   -0.02   -0.28
#  27   -1.21   -0.43    0.12   -0.01   -0.10    0.00    0.00      -1.62   -0.02   -0.28
#  28   -1.27   -0.26    0.04    0.14   -0.08    0.00    0.00      -1.42    0.51   -0.28
#  29   -0.88   -0.12    0.00    0.11   -0.03    0.00    0.00      -0.92    0.97   -0.28
#  30   -0.61   -0.36    0.11    0.07   -0.07    0.00    0.00      -0.86    0.28   -0.27
#  31   -0.40   -0.23    0.05    0.10   -0.06    0.00    0.00      -0.55    0.47   -0.28
#  32   -0.27   -0.30    0.06    0.12   -0.06    0.00    0.00      -0.45    0.48   -0.23
#  33   -0.05   -0.43    0.13   -0.04   -0.10    0.00    0.00      -0.50   -0.11   -0.27
#  34    0.01   -0.31    0.08   -0.02   -0.09    0.00    0.00      -0.33   -0.07   -0.28
#  35    1.16   -0.37    0.07   -0.11   -0.11    0.00    0.00       0.63   -0.28   -0.28
#  36    0.86   -0.55    0.20   -0.13   -0.13    0.00    0.00       0.25   -0.28   -0.28
#  37    1.87   -0.62    0.22   -0.10   -0.15    0.00    0.00       1.22   -0.18   -0.28
#  38    1.70   -0.43    0.07    0.12   -0.15    0.00    0.00       1.31    0.23   -0.28
#  39    0.98   -0.97    0.87    0.20   -0.16    0.00    0.00       0.92    0.34   -0.28
#  40   -0.72   -1.51    1.77    0.13   -0.19    0.00    0.00      -0.51    0.20   -0.28
#  41    0.23   -0.74    0.31   -0.12   -0.17    0.00    0.00      -0.50   -0.21   -0.28
#  42    0.21   -1.02    0.64   -0.38   -0.17    0.00    0.00      -0.72   -0.61   -0.28
#  43   -0.48   -0.37    0.08    0.06   -0.08    0.00    0.00      -0.79    0.17   -0.23
@<TRIPOS>MOLECULE
E48254070
   43    45     0     0     0
SMALL
USER_CHARGES


@<TRIPOS>ATOM
      1 O1         24.4278   20.0226   60.0847 O.3       1            -0.5758
      2 C1         23.0366   20.2946   60.2652 C.3       1             0.0760
      3 C2         22.5718   19.7098   61.6005 C.3       1            -0.1107
      4 C3         22.8001   18.1970   61.6016 C.3       1            -0.0986
      5 C4         24.1955   17.8407   62.1430 C.3       1            -0.1308
      6 C5         24.0067   16.3639   62.4994 C.3       1             0.1128
      7 N1         22.5970   16.1996   62.8624 N.pl3     1            -0.6061
      8 C6         21.9282   17.4973   62.6651 C.3       1             0.1238
      9 C7         21.9976   15.0287   63.3118 C.ar      1             0.4192
     10 N2         20.7036   15.0157   63.6080 N.ar      1            -0.5617
     11 C8         20.1359   13.8965   64.0358 C.ar      1             0.3311
     12 O2         18.8136   13.8791   64.3392 O.3       1            -0.2904
     13 C9         18.0940   15.1027   64.1742 C.3       1             0.1140
     14 C10        16.9623   15.1578   65.1678 C.ar      1            -0.1011
     15 C11        15.8015   15.8405   64.8560 C.ar      1            -0.0945
     16 C12        14.7634   15.8911   65.7674 C.ar      1            -0.1229
     17 C13        14.8859   15.2584   66.9904 C.ar      1            -0.1082
     18 C14        16.0464   14.5749   67.3019 C.ar      1            -0.1228
     19 C15        17.0828   14.5208   66.3887 C.ar      1            -0.0944
     20 C16        20.8958   12.7414   64.1730 C.ar      1            -0.0317
     21 N3         22.1833   12.7564   63.8781 N.ar      1            -0.3658
     22 C17        22.7517   13.8670   63.4463 C.ar      1            -0.0518
     23 H1         24.7914   20.3653   59.2567 H         1             0.3824
     24 H2         22.8740   21.3724   60.2643 H         1             0.0463
     25 H3         22.4693   19.8409   59.4526 H         1             0.0474
     26 H4         23.1392   20.1636   62.4131 H         1             0.0742
     27 H5         21.5106   19.9171   61.7382 H         1             0.0749
     28 H6         22.6360   17.7724   60.6113 H         1             0.0897
     29 H7         24.9576   17.9641   61.3736 H         1             0.0893
     30 H8         24.4347   18.4302   63.0281 H         1             0.0817
     31 H9         24.2471   15.7381   61.6399 H         1             0.0730
     32 H10        24.6435   16.0986   63.3433 H         1             0.0806
     33 H11        21.9210   18.0701   63.5925 H         1             0.0687
     34 H12        20.9132   17.3533   62.2946 H         1             0.0683
     35 H13        18.7656   15.9447   64.3415 H         1             0.0759
     36 H14        17.6920   15.1542   63.1624 H         1             0.0757
     37 H15        15.7057   16.3348   63.9006 H         1             0.1237
     38 H16        13.8567   16.4250   65.5241 H         1             0.1261
     39 H17        14.0751   15.2985   67.7028 H         1             0.1252
     40 H18        16.1423   14.0810   68.2575 H         1             0.1261
     41 H19        17.9881   13.9837   66.6305 H         1             0.1239
     42 H20        20.4331   11.8298   64.5214 H         1             0.1726
     43 H21        23.8036   13.8750   63.2014 H         1             0.1649
@<TRIPOS>BOND
     1    1    2 1 
     2    1   23 1 
     3    2    3 1 
     4    2   24 1 
     5    2   25 1 
     6    3    4 1 
     7    3   26 1 
     8    3   27 1 
     9    4    8 1 
    10    4    5 1 
    11    4   28 1 
    12    5    6 1 
    13    5   29 1 
    14    5   30 1 
    15    6    7 1 
    16    6   31 1 
    17    6   32 1 
    18    7    8 1 
    19    7    9 1 
    20    8   33 1 
    21    8   34 1 
    22    9   22 ar
    23    9   10 ar
    24   10   11 ar
    25   11   12 1 
    26   11   20 ar
    27   12   13 1 
    28   13   14 1 
    29   13   35 1 
    30   13   36 1 
    31   14   19 ar
    32   14   15 ar
    33   15   16 ar
    34   15   37 1 
    35   16   17 ar
    36   16   38 1 
    37   17   18 ar
    38   17   39 1 
    39   18   19 ar
    40   18   40 1 
    41   19   41 1 
    42   20   21 ar
    43   20   42 1 
    44   21   22 ar
    45   22   43 1 
##########                 Name:            E45695634
##########          Protonation:                   96
##########               SMILES:   C[NH+]1CCC(=CC1)CCNc2c3ccccc3nnc2C#N
##########            Long Name:   hyl-1,2,3,6-tetrahydropyridin-1-ium-4-yl)ethylamino]cinnoline-3-carbonitrile
##########          FlexRecCode: 1
##########               Number:                  501
##########   Ligand Source File: /raidb/db2/rgc/leads-emolecules-300/leads-emolecules-2f-0000320.db2.gz
##########           GlobalRank: 2261
##########                 Rank:                    1
##########               Setnum:                   37
##########             Matchnum:                 6275
##########                Cloud:                    1
##########        Electrostatic:           -25.832087
##########        Van der Waals:           -23.800116
##########  Ligand Polar Desolv:            11.303798
########## Ligand Apolar Desolv:            -3.013141
##########      Internal Energy:             0.000000
##########      Receptor Energy: 0.0
########## Receptor Desolvation:             0.000000
########## Receptor Hydrophobic:             0.000000
##########         Total Energy: -41.34
##########        Ligand Charge:             1.000000
##########            Arbitrary:    +999.9990
##########     heavy atom count:   22
##########           pose count:    1
##########        Ligand Energy:             0.000000
# num electro vdwattr vdwrepu polsolv apolsol rdesolv rhydroe totalscore fullpol fullapo
#   1    1.05   -1.58    1.16   -0.50   -0.17    0.00    0.00      -0.04   -1.39   -0.48
#   2   10.98   -2.62    4.56   -4.11    0.16    0.00    0.00       8.97  -11.11    0.42
#   3  -18.42   -0.30    0.33    5.64    0.20    0.00    0.00     -12.55   15.24    0.55
#   4    0.09   -0.69    0.09    0.09   -0.12    0.00    0.00      -0.54    0.30   -0.40
#   5    1.34   -0.81    0.11   -0.90   -0.08    0.00    0.00      -0.34   -2.86   -0.25
#   6    1.14   -1.68    0.38   -1.27   -0.15    0.00    0.00      -1.57   -3.14   -0.36
#   7    0.53   -1.99    0.64   -0.87   -0.11    0.00    0.00      -1.80   -1.82   -0.23
#   8   -0.24   -1.80    0.56    0.65   -0.15    0.00    0.00      -0.98    1.43   -0.33
#   9    2.07   -1.22    0.11   -3.80    0.65    0.00    0.00      -2.19   -9.53    1.63
#  10    0.12   -1.55    0.33    1.30   -0.31    0.00    0.00      -0.10    3.02   -0.71
#  11    0.00   -2.14    0.85   -0.13   -0.35    0.00    0.00      -1.77   -0.27   -0.73
#  12   -0.28   -3.11    1.66   -0.15    0.62    0.00    0.00      -1.26   -0.27    1.13
#  13   -0.96   -2.60    0.63   -0.15    0.70    0.00    0.00      -2.38   -0.25    1.14
#  14    0.48   -1.73    0.28    0.09   -0.44    0.00    0.00      -1.31    0.16   -0.74
#  15   -0.45   -2.14    0.61   -0.55   -0.28    0.00    0.00      -2.81   -0.92   -0.46
#  16   -0.71   -2.34    0.90   -0.33   -0.27    0.00    0.00      -2.75   -0.56   -0.47
#  17   -1.36   -2.34    0.94   -0.75   -0.25    0.00    0.00      -3.75   -1.41   -0.47
#  18   -0.73   -1.90    0.60   -0.39   -0.21    0.00    0.00      -2.63   -0.83   -0.45
#  19   -0.48   -1.63    0.46   -0.60   -0.19    0.00    0.00      -2.45   -1.26   -0.40
#  20   -0.45   -2.30    1.06    0.78   -0.47    0.00    0.00      -1.37    1.87   -1.11
#  21    0.76   -2.03    0.77   -1.05    0.24    0.00    0.00      -1.31   -2.85    0.65
#  22    3.22   -1.51    0.22   -1.81   -0.20    0.00    0.00      -0.08   -4.01   -0.45
#  23   -0.92   -1.66    0.86    0.55   -0.18    0.00    0.00      -1.35    1.24   -0.40
#  24   -1.88   -0.17    0.01    0.87   -0.05    0.00    0.00      -1.22    4.49   -0.28
#  25   -3.43   -1.01    1.37    1.87   -0.12    0.00    0.00      -1.32    4.31   -0.28
#  26   -2.26   -0.38    0.18    0.82   -0.07    0.00    0.00      -1.71    3.38   -0.28
#  27   -1.61   -0.13    0.01    0.34   -0.03    0.00    0.00      -1.43    2.96   -0.28
#  28   -2.44   -0.26    0.06    1.20   -0.07    0.00    0.00      -1.52    5.09   -0.28
#  29   -1.21   -0.16    0.01    0.19   -0.04    0.00    0.00      -1.20    1.39   -0.28
#  30   -0.71   -0.47    0.17    1.00   -0.08    0.00    0.00      -0.09    3.42   -0.28
#  31   -0.40   -1.51    1.51    1.13   -0.15    0.00    0.00       0.58    2.08   -0.28
#  32   -0.19   -0.70    0.44    0.93   -0.12    0.00    0.00       0.36    2.07   -0.27
#  33   -0.45   -0.99    1.24    0.32   -0.10    0.00    0.00       0.02    0.82   -0.26
#  34    0.16   -1.05    0.80    0.40   -0.10    0.00    0.00       0.21    0.79   -0.19
#  35   -2.57   -0.01    0.00    1.43    0.08    0.00    0.00      -1.07    7.97    0.47
#  36    0.37   -0.71    0.54    0.37   -0.15    0.00    0.00       0.40    0.68   -0.28
#  37    1.48   -0.82    1.05    1.00   -0.13    0.00    0.00       2.58    2.17   -0.28
#  38    2.61   -0.92    1.64    1.47   -0.14    0.00    0.00       4.66    3.03   -0.28
#  39    0.70   -0.42    0.24    1.21   -0.08    0.00    0.00       1.65    3.59   -0.24
#  40   -2.04   -0.36    0.10    0.90   -0.09    0.00    0.00      -1.49    2.74   -0.27
#  41   -4.61   -1.09    1.76    2.33   -0.12    0.00    0.00      -1.74    5.62   -0.28
#  42   -4.15   -0.73    0.55    1.78   -0.12    0.00    0.00      -2.67    4.11   -0.28
@<TRIPOS>MOLECULE
E45695634
   42    44     0     0     0
SMALL
USER_CHARGES


@<TRIPOS>ATOM
      1 C1         24.2555   18.6761   59.6391 C.3       1            -0.0468
      2 N1         23.7759   20.0641   59.6766 N.4       1            -0.3874
      3 H1         23.9699   20.5142   58.7947 H         1             0.4272
      4 C2         24.4504   20.7917   60.7627 C.3       1            -0.0053
      5 C3         24.3502   19.9416   62.0310 C.3       1            -0.1187
      6 C4         22.9220   19.5302   62.2588 C.2       1            -0.0914
      7 C5         22.5181   19.0303   63.6219 C.3       1            -0.1030
      8 C6         23.3383   17.7872   63.9728 C.3       1             0.1017
      9 N2         23.0915   16.7421   62.9764 N.pl3     1            -0.7073
     10 C7         22.5646   15.5282   63.3662 C.ar      1             0.2890
     11 C8         23.3909   14.4621   63.7502 C.ar      1             0.0043
     12 N3         22.8528   13.2988   64.1220 N.ar      1            -0.1387
     13 N4         21.5870   13.0878   64.1518 N.ar      1            -0.2290
     14 C9         20.7013   14.0321   63.8072 C.ar      1             0.1098
     15 C10        19.3199   13.7910   63.8435 C.ar      1            -0.0836
     16 C11        18.4525   14.7792   63.4847 C.ar      1            -0.0752
     17 C12        18.9136   16.0293   63.0812 C.ar      1            -0.0994
     18 C13        20.2498   16.2993   63.0339 C.ar      1            -0.0903
     19 C14        21.1666   15.3078   63.4012 C.ar      1            -0.1227
     20 C15        24.8141   14.6216   63.7427 C.1       1             0.2938
     21 N5         25.9429   14.7483   63.7367 N.1       1            -0.4114
     22 C16        22.0227   19.5912   61.3213 C.2       1            -0.1874
     23 C17        22.3301   20.0802   59.9315 C.3       1             0.0338
     24 H2         24.0444   18.1928   60.5930 H         1             0.1260
     25 H3         23.7478   18.1377   58.8387 H         1             0.1263
     26 H4         25.3303   18.6679   59.4578 H         1             0.1234
     27 H5         25.4980   20.9485   60.5061 H         1             0.1342
     28 H6         23.9601   21.7519   60.9230 H         1             0.1384
     29 H7         24.9701   19.0518   61.9205 H         1             0.1240
     30 H8         24.7004   20.5221   62.8845 H         1             0.1080
     31 H9         22.7016   19.8079   64.3632 H         1             0.0932
     32 H10        21.4580   18.7764   63.6165 H         1             0.0929
     33 H11        24.3982   18.0410   63.9783 H         1             0.0786
     34 H12        23.0461   17.4256   64.9587 H         1             0.0828
     35 H13        23.2986   16.9035   62.0426 H         1             0.4146
     36 H14        18.9453   12.8267   64.1538 H         1             0.1522
     37 H15        17.3898   14.5892   63.5136 H         1             0.1437
     38 H16        18.2046   16.7945   62.8017 H         1             0.1393
     39 H17        20.5975   17.2723   62.7194 H         1             0.1306
     40 H18        21.0145   19.2775   61.5485 H         1             0.1502
     41 H19        21.9586   21.0989   59.8206 H         1             0.1411
     42 H20        21.8313   19.4390   59.2048 H         1             0.1388
@<TRIPOS>BOND
     1    1    2 1 
     2    1   24 1 
     3    1   25 1 
     4    1   26 1 
     5    2    3 1 
     6    2   23 1 
     7    2    4 1 
     8    4    5 1 
     9    4   27 1 
    10    4   28 1 
    11    5    6 1 
    12    5   29 1 
    13    5   30 1 
    14    6    7 1 
    15    6   22 2 
    16    7    8 1 
    17    7   31 1 
    18    7   32 1 
    19    8    9 1 
    20    8   33 1 
    21    8   34 1 
    22    9   10 1 
    23    9   35 1 
    24   10   19 ar
    25   10   11 ar
    26   11   12 ar
    27   11   20 1 
    28   12   13 ar
    29   13   14 ar
    30   14   19 ar
    31   14   15 ar
    32   15   16 ar
    33   15   36 1 
    34   16   17 ar
    35   16   37 1 
    36   17   18 ar
    37   17   38 1 
    38   18   19 ar
    39   18   39 1 
    40   20   21 3 
    41   22   23 1 
    42   22   40 1 
    43   23   41 1 
    44   23   42 1 
##########                 Name:            E46026178
##########          Protonation:                   99
##########               SMILES:   CCc1ccc(o1)C[NH+]2CC[C@@H](C2)Cc3ccc(cc3)CO
##########            Long Name:   (3S)-1-[(5-ethyl-2-furyl)methyl]pyrrolidin-1-ium-3-yl]methyl]phenyl]methanol
##########          FlexRecCode: 1
##########               Number:                  181
##########   Ligand Source File: /raidb/db2/rgc/leads-emolecules-300/leads-emolecules-3-co-0000007.db2.gz
##########           GlobalRank: 2274
##########                 Rank:                    1
##########               Setnum:                    6
##########             Matchnum:                 1665
##########                Cloud:                    1
##########        Electrostatic:           -22.967306
##########        Van der Waals:           -25.710222
##########  Ligand Polar Desolv:             9.551085
########## Ligand Apolar Desolv:            -2.204522
##########      Internal Energy:             0.000000
##########      Receptor Energy: 0.0
########## Receptor Desolvation:             0.000000
########## Receptor Hydrophobic:             0.000000
##########         Total Energy: -41.33
##########        Ligand Charge:             1.000000
##########            Arbitrary:    +999.9990
##########     heavy atom count:   22
##########           pose count:    1
##########        Ligand Energy:             0.000000
# num electro vdwattr vdwrepu polsolv apolsol rdesolv rhydroe totalscore fullpol fullapo
#   1    0.01   -0.87    0.12   -0.69   -0.08    0.00    0.00      -1.52   -1.65   -0.19
#   2    0.08   -0.69    0.10   -0.21   -0.09    0.00    0.00      -0.81   -0.65   -0.27
#   3   -0.18   -0.65    0.04   -0.10   -0.07    0.00    0.00      -0.95   -0.40   -0.29
#   4    0.43   -0.47    0.01   -0.70   -0.10    0.00    0.00      -0.82   -3.63   -0.51
#   5    0.77   -0.64    0.04   -0.78   -0.11    0.00    0.00      -0.73   -3.46   -0.47
#   6    1.56   -1.03    0.19   -0.36   -0.08    0.00    0.00       0.28   -1.31   -0.29
#   7   -2.28   -1.15    0.36    1.21   -0.14    0.00    0.00      -1.99    3.46   -0.39
#   8    9.49   -1.63    1.22   -4.08    0.14    0.00    0.00       5.15  -11.87    0.42
#   9  -12.50   -0.08    0.01    3.79    0.15    0.00    0.00      -8.63   13.98    0.56
#  10    0.12   -1.64    0.63    0.12   -0.18    0.00    0.00      -0.94    0.28   -0.40
#  11    2.09   -0.82    0.09   -1.64   -0.12    0.00    0.00      -0.38   -3.84   -0.27
#  12    1.06   -0.59    0.04   -0.84   -0.06    0.00    0.00      -0.40   -2.51   -0.19
#  13    0.36   -0.84    0.09   -0.64   -0.08    0.00    0.00      -1.11   -1.65   -0.20
#  14    0.07   -1.38    0.22   -0.41   -0.14    0.00    0.00      -1.64   -0.98   -0.34
#  15    0.09   -1.61    0.41   -0.71   -0.18    0.00    0.00      -2.00   -1.63   -0.40
#  16   -0.15   -2.01    0.65   -0.70   -0.24    0.00    0.00      -2.45   -1.32   -0.46
#  17   -0.34   -1.72    0.38   -0.66   -0.23    0.00    0.00      -2.56   -1.13   -0.39
#  18    0.36   -1.56    0.31    0.39   -0.09    0.00    0.00      -0.60    0.61   -0.14
#  19   -1.67   -4.17    2.06   -2.10    1.19    0.00    0.00      -4.68   -3.09    1.75
#  20   -0.64   -1.62    0.30   -0.60   -0.23    0.00    0.00      -2.79   -1.22   -0.46
#  21   -0.46   -1.74    0.43   -0.74   -0.20    0.00    0.00      -2.72   -1.67   -0.46
#  22    0.03   -0.51    0.03    0.23   -0.13    0.00    0.00      -0.35    0.79   -0.43
#  23    1.40   -1.09    0.31   -0.94    0.07    0.00    0.00      -0.26   -3.24    0.25
#  24    0.01   -0.41    0.07    0.20   -0.12    0.00    0.00      -0.24    0.47   -0.28
#  25   -0.03   -0.30    0.09    0.15   -0.09    0.00    0.00      -0.17    0.50   -0.28
#  26    0.08   -0.27    0.06    0.19   -0.08    0.00    0.00      -0.02    0.66   -0.28
#  27   -0.27   -0.34    0.11    0.35   -0.08    0.00    0.00      -0.23    1.25   -0.28
#  28    0.09   -0.22    0.04    0.21   -0.05    0.00    0.00       0.06    1.13   -0.28
#  29    0.15   -0.10    0.00    0.18   -0.03    0.00    0.00       0.21    1.66   -0.28
#  30   -0.53   -0.20    0.02    0.85   -0.05    0.00    0.00       0.09    4.63   -0.28
#  31   -3.04   -0.37    0.16    1.66   -0.08    0.00    0.00      -1.67    5.74   -0.28
#  32   -4.63   -0.86    0.84    2.82   -0.11    0.00    0.00      -1.94    7.21   -0.27
#  33   -4.14   -0.77    0.59    2.50   -0.12    0.00    0.00      -1.93    5.62   -0.26
#  34   -3.54   -0.90    0.82    1.53   -0.13    0.00    0.00      -2.22    3.23   -0.27
#  35   -1.55   -0.22    0.01    0.52   -0.05    0.00    0.00      -1.29    2.12   -0.19
#  36   -1.13   -0.40    0.17    0.43   -0.10    0.00    0.00      -1.03    1.25   -0.28
#  37   -1.03   -0.22    0.04    0.43   -0.06    0.00    0.00      -0.84    2.05   -0.28
#  38   -0.47   -0.40    0.15    0.60   -0.07    0.00    0.00      -0.19    2.35   -0.28
#  39   -0.39   -0.34    0.04    1.09   -0.10    0.00    0.00       0.30    3.07   -0.28
#  40   -0.32   -0.25    0.03    0.89   -0.07    0.00    0.00       0.27    3.21   -0.24
#  41    0.22   -0.55    0.15    0.49   -0.14    0.00    0.00       0.16    1.00   -0.28
#  42    0.19   -0.54    0.21    0.18   -0.14    0.00    0.00      -0.11    0.36   -0.28
#  43    0.23   -0.60    0.29    0.26   -0.16    0.00    0.00       0.02    0.46   -0.28
#  44   -1.93   -0.19    0.04    2.47    0.83    0.00    0.00       1.23    3.70    1.24
#  45    1.49   -0.30    0.03    0.24   -0.10    0.00    0.00       1.36    0.66   -0.28
#  46    0.76   -0.52    0.32    0.77   -0.10    0.00    0.00       1.25    2.27   -0.28
#  47   -1.39   -0.11    0.00    0.62   -0.03    0.00    0.00      -0.91    5.71   -0.28
#  48   -1.48   -0.18    0.01    1.11   -0.05    0.00    0.00      -0.58    6.30   -0.27
@<TRIPOS>MOLECULE
E46026178
   48    50     0     0     0
SMALL
USER_CHARGES


@<TRIPOS>ATOM
      1 C1         27.7936   25.1993   59.1767 C.3       1            -0.1541
      2 C2         27.4350   23.8662   58.5170 C.3       1            -0.0559
      3 C3         26.5655   23.0623   59.4491 C.2       1             0.0493
      4 C4         26.7721   22.8927   60.7675 C.2       1            -0.2191
      5 C5         25.7227   22.0743   61.2446 C.2       1            -0.1343
      6 C6         24.9375   21.7926   60.1893 C.2       1            -0.1153
      7 C7         23.6906   20.9468   60.2193 C.3       1             0.0984
      8 N1         24.0445   19.5438   59.9655 N.4       1            -0.3985
      9 H1         24.7519   19.4949   59.2477 H         1             0.4296
     10 C8         22.8521   18.8001   59.5393 C.3       1            -0.0047
     11 C9         22.3311   18.1861   60.8552 C.3       1            -0.1464
     12 C10        23.6695   17.7146   61.4478 C.3       1            -0.1032
     13 C11        23.5416   17.4359   62.9468 C.3       1            -0.0716
     14 C12        22.5880   16.2896   63.1650 C.ar      1            -0.0926
     15 C13        23.0634   14.9920   63.1994 C.ar      1            -0.1200
     16 C14        22.1887   13.9405   63.3996 C.ar      1            -0.0949
     17 C15        20.8386   14.1866   63.5658 C.ar      1            -0.0832
     18 C16        19.8849   13.0402   63.7835 C.3       1             0.1100
     19 O1         20.6107   11.8093   63.7777 O.3       1            -0.5693
     20 C17        20.3634   15.4843   63.5325 C.ar      1            -0.0934
     21 C18        21.2386   16.5360   63.3362 C.ar      1            -0.1152
     22 C19        24.5420   18.9325   61.1893 C.3       1            -0.0025
     23 O2         25.4497   22.3985   59.1055 O.3       1            -0.1668
     24 H2         28.4226   25.7807   58.5025 H         1             0.0636
     25 H3         26.8811   25.7551   59.3922 H         1             0.0601
     26 H4         28.3328   25.0118   60.1054 H         1             0.0762
     27 H5         26.8960   24.0537   57.5883 H         1             0.1053
     28 H6         28.3476   23.3104   58.3015 H         1             0.0890
     29 H7         27.5841   23.3027   61.3496 H         1             0.1618
     30 H8         25.5791   21.7393   62.2611 H         1             0.1593
     31 H9         23.2179   21.0309   61.1979 H         1             0.1434
     32 H10        22.9990   21.2918   59.4507 H         1             0.1536
     33 H11        22.1113   19.4741   59.1091 H         1             0.1326
     34 H12        23.1197   18.0178   58.8290 H         1             0.1319
     35 H13        21.8583   18.9385   61.4865 H         1             0.1155
     36 H14        21.6611   17.3474   60.6660 H         1             0.1003
     37 H15        24.0476   16.8400   60.9185 H         1             0.1096
     38 H16        24.5195   17.1774   63.3530 H         1             0.0882
     39 H17        23.1623   18.3250   63.4507 H         1             0.0836
     40 H18        24.1182   14.7998   63.0697 H         1             0.1227
     41 H19        22.5601   12.9267   63.4259 H         1             0.1264
     42 H20        19.3836   13.1621   64.7437 H         1             0.0586
     43 H21        19.1429   13.0283   62.9852 H         1             0.0583
     44 H22        20.0589   11.0267   63.9128 H         1             0.3869
     45 H23        19.3086   15.6765   63.6627 H         1             0.1271
     46 H24        20.8678   17.5502   63.3136 H         1             0.1251
     47 H25        25.5806   18.6275   61.0606 H         1             0.1379
     48 H26        24.4609   19.6347   62.0191 H         1             0.1368
@<TRIPOS>BOND
     1    1    2 1 
     2    1   24 1 
     3    1   25 1 
     4    1   26 1 
     5    2    3 1 
     6    2   27 1 
     7    2   28 1 
     8    3   23 1 
     9    3    4 2 
    10    4    5 1 
    11    4   29 1 
    12    5    6 2 
    13    5   30 1 
    14    6    7 1 
    15    6   23 1 
    16    7    8 1 
    17    7   31 1 
    18    7   32 1 
    19    8    9 1 
    20    8   22 1 
    21    8   10 1 
    22   10   11 1 
    23   10   33 1 
    24   10   34 1 
    25   11   12 1 
    26   11   35 1 
    27   11   36 1 
    28   12   13 1 
    29   12   22 1 
    30   12   37 1 
    31   13   14 1 
    32   13   38 1 
    33   13   39 1 
    34   14   21 ar
    35   14   15 ar
    36   15   16 ar
    37   15   40 1 
    38   16   17 ar
    39   16   41 1 
    40   17   18 1 
    41   17   20 ar
    42   18   19 1 
    43   18   42 1 
    44   18   43 1 
    45   19   44 1 
    46   20   21 ar
    47   20   45 1 
    48   21   46 1 
    49   22   47 1 
    50   22   48 1 
##########                 Name:             E1335240
##########          Protonation:                   90
##########               SMILES:   CC(C)[NH+]1CCN(CC1)Cc2ccc3c(c2)OCO3
##########            Long Name:   1-(1,3-benzodioxol-5-ylmethyl)-4-isopropyl-piperazin-4-ium
##########          FlexRecCode: 1
##########               Number:                  485
##########   Ligand Source File: /raidb/db2/rgc/leads-emolecules-300/leads-lt300-emolecules-1c-0000118.db2.gz
##########           GlobalRank: 2274
##########                 Rank:                    1
##########               Setnum:                    8
##########             Matchnum:                  682
##########                Cloud:                    1
##########        Electrostatic:           -24.836611
##########        Van der Waals:           -24.297791
##########  Ligand Polar Desolv:             9.205966
########## Ligand Apolar Desolv:            -1.398361
##########      Internal Energy:             0.000000
##########      Receptor Energy: 0.0
########## Receptor Desolvation:             0.000000
########## Receptor Hydrophobic:             0.000000
##########         Total Energy: -41.33
##########        Ligand Charge:             1.000000
##########            Arbitrary:    +999.9990
##########     heavy atom count:   19
##########           pose count:    1
##########        Ligand Energy:             0.000000
# num electro vdwattr vdwrepu polsolv apolsol rdesolv rhydroe totalscore fullpol fullapo
#   1    1.99   -0.56    0.12   -1.08   -0.04    0.00    0.00       0.44   -5.05   -0.18
#   2   -0.34   -0.61    0.09    0.50   -0.06    0.00    0.00      -0.42    1.80   -0.23
#   3    2.43   -0.65    0.07   -1.45   -0.05    0.00    0.00       0.36   -5.06   -0.18
#   4    9.56   -1.80    1.56   -3.88    0.06    0.00    0.00       5.50  -10.91    0.16
#   5  -17.47   -0.20    0.12    5.31    0.19    0.00    0.00     -12.04   14.63    0.53
#   6    1.28   -1.09    0.20   -0.47   -0.14    0.00    0.00      -0.22   -1.15   -0.34
#   7   -0.48   -1.19    0.34    0.39   -0.18    0.00    0.00      -1.13    0.92   -0.44
#   8    4.73   -1.03    0.06   -5.31    1.37    0.00    0.00      -0.18  -13.10    3.38
#   9   -0.26   -1.20    0.19    0.92   -0.15    0.00    0.00      -0.49    2.07   -0.33
#  10   -0.02   -1.62    0.30   -0.33   -0.15    0.00    0.00      -1.82   -0.77   -0.34
#  11    0.07   -1.80    0.51   -0.48   -0.19    0.00    0.00      -1.88   -1.14   -0.45
#  12    0.07   -2.15    0.74   -0.53   -0.23    0.00    0.00      -2.10   -1.11   -0.47
#  13    0.10   -2.18    0.54   -0.23   -0.18    0.00    0.00      -1.96   -0.42   -0.33
#  14   -1.79   -3.51    1.71   -0.78    0.33    0.00    0.00      -4.04   -1.23    0.52
#  15    0.61   -2.11    0.55    0.86    0.01    0.00    0.00      -0.08    1.30    0.02
#  16   -1.38   -1.49    0.16   -1.33    0.32    0.00    0.00      -3.71   -2.18    0.52
#  17    0.13   -1.69    0.39   -0.13   -0.19    0.00    0.00      -1.49   -0.23   -0.33
#  18   -0.43   -1.70    0.42   -0.49   -0.16    0.00    0.00      -2.37   -1.11   -0.37
#  19   -0.27   -0.53    0.03    0.17   -0.13    0.00    0.00      -0.74    0.53   -0.43
#  20    1.05   -1.02    0.27   -0.39   -0.12    0.00    0.00      -0.21   -1.12   -0.34
#  21   -0.77   -0.12    0.01    0.26   -0.03    0.00    0.00      -0.66    2.17   -0.28
#  22   -1.51   -0.44    0.41    0.31   -0.06    0.00    0.00      -1.30    1.39   -0.28
#  23   -0.39   -0.07    0.00    0.18   -0.02    0.00    0.00      -0.31    2.43   -0.23
#  24   -1.42   -0.15    0.01    0.72   -0.04    0.00    0.00      -0.89    4.48   -0.28
#  25   -1.52   -0.36    0.17    0.55   -0.07    0.00    0.00      -1.23    2.20   -0.28
#  26   -0.48   -0.11    0.00    0.30   -0.03    0.00    0.00      -0.31    2.74   -0.23
#  27   -1.36   -0.26    0.06    0.32   -0.07    0.00    0.00      -1.31    1.39   -0.28
#  28   -3.60   -0.52    0.21    1.63   -0.09    0.00    0.00      -2.36    4.37   -0.23
#  29   -3.47   -0.37    0.08    1.95   -0.08    0.00    0.00      -1.88    5.37   -0.22
#  30   -1.69   -0.51    0.27    0.84   -0.08    0.00    0.00      -1.17    2.82   -0.28
#  31   -1.43   -0.68    0.39    1.23   -0.11    0.00    0.00      -0.59    3.19   -0.28
#  32   -0.18   -0.60    0.21    1.11   -0.07    0.00    0.00       0.48    2.80   -0.17
#  33   -0.05   -0.65    0.45    1.12   -0.12    0.00    0.00       0.73    2.44   -0.27
#  34   -0.37   -0.35    0.09    0.67   -0.07    0.00    0.00      -0.03    2.55   -0.28
#  35   -0.48   -0.49    0.19    0.30   -0.11    0.00    0.00      -0.59    0.78   -0.28
#  36    0.37   -0.79    0.40    0.90   -0.18    0.00    0.00       0.71    1.43   -0.28
#  37   -0.21   -1.14    1.19    0.69   -0.18    0.00    0.00       0.35    1.05   -0.28
#  38    1.15   -0.38    0.10    1.25   -0.09    0.00    0.00       2.04    3.74   -0.27
#  39   -1.17   -0.16    0.01    0.20   -0.03    0.00    0.00      -1.14    1.49   -0.20
#  40   -0.82   -0.16    0.01    0.49   -0.05    0.00    0.00      -0.52    3.03   -0.28
#  41   -2.90   -0.50    0.22    1.85   -0.08    0.00    0.00      -1.42    4.89   -0.22
#  42   -2.14   -0.33    0.09    1.09   -0.06    0.00    0.00      -1.34    4.12   -0.21
@<TRIPOS>MOLECULE
E1335240
   42    44     0     0     0
SMALL
USER_CHARGES


@<TRIPOS>ATOM
      1 C1         26.2969   20.2094   59.9867 C.3       1            -0.1840
      2 C2         24.9442   20.5371   60.6221 C.3       1             0.0224
      3 C3         24.6850   22.0417   60.5226 C.3       1            -0.1833
      4 N1         23.8819   19.8093   59.9152 N.4       1            -0.3774
      5 H1         23.8736   20.0859   58.9448 H         1             0.4214
      6 C4         22.5834   20.1253   60.5248 C.3       1            -0.0548
      7 C5         22.6000   19.7197   62.0002 C.3       1             0.0327
      8 N2         22.8702   18.2789   62.1039 N.3       1            -0.5201
      9 C6         22.8317   17.8354   63.5038 C.3       1             0.0909
     10 C7         22.6196   16.3442   63.5527 C.ar      1            -0.0910
     11 C8         23.7089   15.4927   63.5596 C.ar      1            -0.0783
     12 C9         23.5203   14.1236   63.6044 C.ar      1            -0.0968
     13 C10        22.2382   13.6032   63.6423 C.ar      1             0.0466
     14 O1         21.7675   12.3254   63.6898 O.3       1            -0.3035
     15 C11        20.3990   12.3786   63.2593 C.3       1             0.2127
     16 O2         20.0137   13.6964   63.6784 O.3       1            -0.3080
     17 C12        21.1404   14.4613   63.6353 C.ar      1             0.0350
     18 C13        21.3363   15.8311   63.5961 C.ar      1            -0.1038
     19 C14        24.1594   17.9470   61.4815 C.3       1             0.0254
     20 C15        24.1318   18.3650   60.0100 C.3       1            -0.0563
     21 H2         26.4815   19.1374   60.0576 H         1             0.0819
     22 H3         26.2877   20.5079   58.9385 H         1             0.1063
     23 H4         27.0851   20.7492   60.5114 H         1             0.0811
     24 H5         24.9535   20.2385   61.6705 H         1             0.1333
     25 H6         23.7214   22.2752   60.9754 H         1             0.0818
     26 H7         25.4733   22.5815   61.0474 H         1             0.0815
     27 H8         24.6760   22.3402   59.4743 H         1             0.1061
     28 H9         22.3952   21.1960   60.4445 H         1             0.1285
     29 H10        21.7959   19.5784   60.0065 H         1             0.1408
     30 H11        23.3799   20.2746   62.5216 H         1             0.1269
     31 H12        21.6322   19.9419   62.4497 H         1             0.1066
     32 H13        23.7750   18.0844   63.9898 H         1             0.0481
     33 H14        22.0132   18.3360   64.0211 H         1             0.1048
     34 H15        24.7096   15.8979   63.5296 H         1             0.1424
     35 H16        24.3728   13.4606   63.6093 H         1             0.1426
     36 H17        20.3262   12.2765   62.1766 H         1             0.1383
     37 H18        19.8017   11.6187   63.7631 H         1             0.0904
     38 H19        20.4872   16.4985   63.5953 H         1             0.1258
     39 H20        24.9596   18.4790   61.9962 H         1             0.1270
     40 H21        24.3319   16.8730   61.5519 H         1             0.1061
     41 H22        23.3387   17.8243   59.4936 H         1             0.1408
     42 H23        25.0910   18.1312   59.5483 H         1             0.1287
@<TRIPOS>BOND
     1    1    2 1 
     2    1   21 1 
     3    1   22 1 
     4    1   23 1 
     5    2    3 1 
     6    2    4 1 
     7    2   24 1 
     8    3   25 1 
     9    3   26 1 
    10    3   27 1 
    11    4    5 1 
    12    4   20 1 
    13    4    6 1 
    14    6    7 1 
    15    6   28 1 
    16    6   29 1 
    17    7    8 1 
    18    7   30 1 
    19    7   31 1 
    20    8    9 1 
    21    8   19 1 
    22    9   10 1 
    23    9   32 1 
    24    9   33 1 
    25   10   18 ar
    26   10   11 ar
    27   11   12 ar
    28   11   34 1 
    29   12   13 ar
    30   12   35 1 
    31   13   17 ar
    32   13   14 1 
    33   14   15 1 
    34   15   16 1 
    35   15   36 1 
    36   15   37 1 
    37   16   17 1 
    38   17   18 ar
    39   18   38 1 
    40   19   20 1 
    41   19   39 1 
    42   19   40 1 
    43   20   41 1 
    44   20   42 1 
##########                 Name:            E42861705
##########          Protonation:                   13
##########               SMILES:   c1ccc(cc1)n2cncc2C(=O)N/N=c/3\[nH]ccc[nH+]3
##########            Long Name:   3-phenyl-N-[(E)-1H-pyrimidin-3-ium-2-ylideneamino]imidazole-4-carboxamide
##########          FlexRecCode: 1
##########               Number:                  829
##########   Ligand Source File: /raidb/db2/rgc/leads-emolecules-300/leads-lt300-emolecules-1j-0000072.db2.gz
##########           GlobalRank: 2274
##########                 Rank:                    1
##########               Setnum:                   48
##########             Matchnum:                 5111
##########                Cloud:                    1
##########        Electrostatic:           -30.546404
##########        Van der Waals:           -22.067186
##########  Ligand Polar Desolv:            16.230124
########## Ligand Apolar Desolv:            -4.947494
##########      Internal Energy:             0.000000
##########      Receptor Energy: 0.0
########## Receptor Desolvation:             0.000000
########## Receptor Hydrophobic:             0.000000
##########         Total Energy: -41.33
##########        Ligand Charge:             1.000000
##########            Arbitrary:    +999.9990
##########     heavy atom count:   21
##########           pose count:    1
##########        Ligand Energy:             0.000000
# num electro vdwattr vdwrepu polsolv apolsol rdesolv rhydroe totalscore fullpol fullapo
#   1   -5.30   -4.63    7.50   -0.93    0.18    0.00    0.00      -3.18   -1.90    0.36
#   2    3.72   -1.84    0.53    2.25   -0.30    0.00    0.00       4.36    4.91   -0.66
#   3   -0.05   -1.40    0.24   -3.29    0.58    0.00    0.00      -3.92   -7.72    1.37
#   4    0.72   -1.61    0.25   -2.99    0.51    0.00    0.00      -3.12   -6.77    1.16
#   5   -4.72   -1.20    0.10    5.24   -2.11    0.00    0.00      -2.69   12.05   -4.85
#   6    8.60   -1.20    0.13   -6.69    0.42    0.00    0.00       1.25  -16.28    1.03
#   7   -7.77   -2.10    0.71    4.23   -0.42    0.00    0.00      -5.34    9.87   -0.97
#   8    8.36   -2.37    1.30   -3.69   -0.19    0.00    0.00       3.41   -9.23   -0.48
#   9   -7.23   -2.22    1.40    3.87   -0.37    0.00    0.00      -4.55   10.08   -0.97
#  10    8.21   -2.74    1.89   -5.95    0.43    0.00    0.00       1.83  -14.28    1.04
#  11   -7.01   -0.13    0.02    5.28    0.26    0.00    0.00      -1.57   12.20    0.60
#  12   -0.45   -1.65    0.40   -0.61   -0.42    0.00    0.00      -2.74   -1.07   -0.73
#  13    0.12   -2.60    2.44    0.46   -0.58    0.00    0.00      -0.16    0.79   -0.99
#  14   -1.70   -3.30    1.02   -2.58    1.46    0.00    0.00      -5.09   -3.95    2.24
#  15    0.58   -3.15    1.22    0.95   -2.04    0.00    0.00      -2.44    1.46   -3.14
#  16   -2.06   -1.93    0.36   -1.42    0.51    0.00    0.00      -4.54   -2.36    0.84
#  17    0.76   -2.44    1.33    0.22   -0.34    0.00    0.00      -0.47    0.36   -0.57
#  18   -0.37   -3.47    2.33   -0.25   -0.22    0.00    0.00      -1.98   -0.40   -0.36
#  19   -0.70   -3.04    1.18   -0.44   -0.30    0.00    0.00      -3.31   -0.68   -0.47
#  20   -1.37   -2.48    0.67   -0.49   -0.30    0.00    0.00      -3.97   -0.75   -0.47
#  21   -1.85   -2.80    0.89   -0.47   -0.28    0.00    0.00      -4.51   -0.80   -0.47
#  22   -1.40   -2.45    0.70   -0.44   -0.27    0.00    0.00      -3.86   -0.74   -0.46
#  23   -1.10   -0.03    0.00    2.09    0.06    0.00    0.00       1.02    8.66    0.25
#  24   -5.15   -0.03    0.00    3.86    0.13    0.00    0.00      -1.19   13.22    0.45
#  25   -6.69   -0.94    0.86    5.00   -0.13    0.00    0.00      -1.90   10.52   -0.28
#  26   -6.95   -1.24    3.04    3.26   -0.11    0.00    0.00      -2.00    8.38   -0.28
#  27   -5.59   -0.81    1.68    3.40   -0.09    0.00    0.00      -1.42   10.51   -0.28
#  28   -0.14   -0.53    0.48    1.98   -0.10    0.00    0.00       1.68    4.93   -0.26
#  29   -0.28   -1.35    2.10    1.58   -0.18    0.00    0.00       1.87    2.42   -0.28
#  30    0.01   -1.01    1.00    0.14   -0.15    0.00    0.00      -0.01    0.26   -0.27
#  31    0.14   -0.70    0.21    0.60   -0.17    0.00    0.00       0.10    1.01   -0.28
#  32    2.09   -0.47    0.10    0.64   -0.13    0.00    0.00       2.23    1.41   -0.28
#  33    2.41   -1.03    1.05    0.88   -0.16    0.00    0.00       3.16    1.55   -0.28
#  34    1.61   -0.59    0.26    0.58   -0.14    0.00    0.00       1.71    1.19   -0.28
@<TRIPOS>MOLECULE
E42861705
   34    36     0     0     0
SMALL
USER_CHARGES


@<TRIPOS>ATOM
      1 O1         20.3663   16.6169   64.5645 O.2       1            -0.4706
      2 C1         20.9146   15.9974   63.6697 C.2       1             0.6174
      3 N1         21.7945   16.6198   62.8605 N.am      1            -0.5591
      4 N2         22.0789   17.9787   63.0480 N.2       1            -0.2369
      5 C2         22.4163   18.7265   62.0227 C.2       1             0.4467
      6 N3         22.6038   18.1530   60.7981 N.pl3     1            -0.5868
      7 C3         22.9459   18.9021   59.7527 C.2       1             0.3175
      8 C4         23.1110   20.2670   59.9103 C.2       1            -0.3060
      9 C5         22.9181   20.8386   61.1557 C.2       1             0.3289
     10 N4         22.5717   20.0727   62.1875 N.pl3     1            -0.5257
     11 H1         22.4327   20.4717   63.0606 H         1             0.4666
     12 C6         20.6214   14.5724   63.4771 C.2       1            -0.0976
     13 C7         21.4692   13.6206   62.9839 C.2       1             0.0544
     14 N5         20.8157   12.4578   62.9715 N.2       1            -0.4840
     15 C8         19.6025   12.6280   63.4307 C.2       1             0.2450
     16 N6         19.4344   13.9238   63.7642 N.pl3     1            -0.3714
     17 C9         18.2755   14.5037   64.2971 C.ar      1             0.0872
     18 C10        17.7716   14.0607   65.5127 C.ar      1            -0.0714
     19 C11        16.6291   14.6342   66.0355 C.ar      1            -0.1060
     20 C12        15.9868   15.6487   65.3492 C.ar      1            -0.0963
     21 C13        16.4862   16.0919   64.1384 C.ar      1            -0.1072
     22 C14        17.6318   15.5265   63.6135 C.ar      1            -0.1028
     23 H2         22.2311   16.1267   62.1482 H         1             0.3886
     24 H3         22.4875   17.1962   60.6896 H         1             0.4484
     25 H4         23.0944   18.4463   58.7849 H         1             0.2207
     26 H5         23.3889   20.8820   59.0671 H         1             0.2056
     27 H6         23.0445   21.9027   61.2892 H         1             0.2284
     28 H7         22.4871   13.7815   62.6610 H         1             0.1784
     29 H8         18.8563   11.8537   63.5305 H         1             0.2244
     30 H9         18.2725   13.2680   66.0488 H         1             0.1235
     31 H10        16.2367   14.2899   66.9809 H         1             0.1349
     32 H11        15.0932   16.0954   65.7593 H         1             0.1349
     33 H12        15.9823   16.8842   63.6047 H         1             0.1380
     34 H13        18.0238   15.8764   62.6700 H         1             0.1322
@<TRIPOS>BOND
     1    1    2 2 
     2    2    3 am
     3    2   12 1 
     4    3    4 1 
     5    3   23 1 
     6    4    5 2 
     7    5   10 1 
     8    5    6 1 
     9    6    7 1 
    10    6   24 1 
    11    7    8 2 
    12    7   25 1 
    13    8    9 1 
    14    8   26 1 
    15    9   10 2 
    16    9   27 1 
    17   10   11 1 
    18   12   16 1 
    19   12   13 2 
    20   13   14 1 
    21   13   28 1 
    22   14   15 2 
    23   15   16 1 
    24   15   29 1 
    25   16   17 1 
    26   17   22 ar
    27   17   18 ar
    28   18   19 ar
    29   18   30 1 
    30   19   20 ar
    31   19   31 1 
    32   20   21 ar
    33   20   32 1 
    34   21   22 ar
    35   21   33 1 
    36   22   34 1 
##########                 Name:             E5777605
##########          Protonation:                   25
##########               SMILES:   Cc1ccc(c(c1)[N+](=O)[O-])c2[nH]nc(n2)c3ccncc3
##########            Long Name:   4-[5-(4-methyl-2-nitro-phenyl)-1H-1,2,4-triazol-3-yl]pyridine
##########          FlexRecCode: 1
##########               Number:                  504
##########   Ligand Source File: /raidb/db2/rgc/leads-emolecules-300/leads-lt300-emolecules-1j-0000207.db2.gz
##########           GlobalRank: 2274
##########                 Rank:                    1
##########               Setnum:                   15
##########             Matchnum:                 6230
##########                Cloud:                    1
##########        Electrostatic:            -9.041027
##########        Van der Waals:           -35.496162
##########  Ligand Polar Desolv:             7.356685
########## Ligand Apolar Desolv:            -4.148708
##########      Internal Energy:             0.000000
##########      Receptor Energy: 0.0
########## Receptor Desolvation:             0.000000
########## Receptor Hydrophobic:             0.000000
##########         Total Energy: -41.33
##########        Ligand Charge:             0.000000
##########            Arbitrary:    +999.9990
##########     heavy atom count:   21
##########           pose count:    1
##########        Ligand Energy:             0.000000
# num electro vdwattr vdwrepu polsolv apolsol rdesolv rhydroe totalscore fullpol fullapo
#   1    0.35   -1.03    0.22   -0.37   -0.08    0.00    0.00      -0.91   -0.99   -0.20
#   2    0.07   -1.57    0.32   -0.09   -0.17    0.00    0.00      -1.45   -0.22   -0.41
#   3    0.14   -1.40    0.18   -0.18   -0.18    0.00    0.00      -1.44   -0.45   -0.45
#   4   -0.17   -1.66    0.36   -0.17   -0.20    0.00    0.00      -1.84   -0.38   -0.45
#   5    0.06   -1.64    0.36    0.00   -0.19    0.00    0.00      -1.41    0.00   -0.41
#   6    3.67   -1.86    0.40   -0.47   -1.10    0.00    0.00       0.64   -0.91   -2.11
#   7   -6.06   -1.88    0.28    2.25    0.79    0.00    0.00      -4.63    3.86    1.35
#   8    4.33   -2.25    0.48   -0.96   -1.30    0.00    0.00       0.31   -1.60   -2.17
#   9   -4.35   -3.45    1.51    0.73    0.73    0.00    0.00      -4.83    1.24    1.25
#  10   -6.08   -3.30    2.35    0.06    0.39    0.00    0.00      -6.58    0.11    0.73
#  11    0.34   -2.49    0.77    0.00   -0.26    0.00    0.00      -1.65    0.00   -0.41
#  12   -0.68   -3.35    1.57    0.52   -0.29    0.00    0.00      -2.23    0.80   -0.45
#  13    0.29   -4.24    2.15   -0.27   -0.63    0.00    0.00      -2.70   -0.42   -0.98
#  14   -3.83   -3.09    0.93    1.62    1.35    0.00    0.00      -3.02    2.46    2.05
#  15    1.16   -2.24    0.41   -0.17   -0.65    0.00    0.00      -1.49   -0.25   -0.98
#  16   -2.11   -2.69    0.83    0.28   -0.28    0.00    0.00      -3.98    0.45   -0.45
#  17    0.04   -1.74    0.45    0.04   -0.35    0.00    0.00      -1.57    0.07   -0.63
#  18   -0.03   -1.90    0.49   -0.04   -0.22    0.00    0.00      -1.70   -0.09   -0.44
#  19    0.09   -2.10    0.30   -0.14    0.22    0.00    0.00      -1.62   -0.22    0.36
#  20   -0.69   -2.13    0.55    1.26   -0.40    0.00    0.00      -1.41    2.05   -0.65
#  21   -0.39   -3.56    1.48    0.77   -0.36    0.00    0.00      -2.06    1.16   -0.54
#  22   -0.41   -0.31    0.09    0.18   -0.06    0.00    0.00      -0.50    0.86   -0.28
#  23   -0.04   -0.64    0.44    0.40   -0.10    0.00    0.00       0.06    1.16   -0.28
#  24   -0.34   -0.20    0.02    0.13   -0.07    0.00    0.00      -0.46    0.53   -0.28
#  25   -0.73   -0.25    0.02    0.73   -0.07    0.00    0.00      -0.29    2.84   -0.28
#  26    0.35   -0.43    0.18    0.76   -0.08    0.00    0.00       0.77    2.24   -0.25
#  27    2.73   -0.06    0.00    1.18    0.18    0.00    0.00       4.02    2.47    0.37
#  28    0.18   -0.73    0.42   -0.57   -0.16    0.00    0.00      -0.86   -0.99   -0.28
#  29   -0.72   -1.46    1.32   -0.19   -0.19    0.00    0.00      -1.23   -0.29   -0.28
#  30    1.83   -0.46    0.12    0.13   -0.15    0.00    0.00       1.47    0.23   -0.28
#  31    2.09   -0.93    0.91   -0.12   -0.15    0.00    0.00       1.80   -0.22   -0.28
#  32   -0.12   -0.50    0.15    0.07   -0.12    0.00    0.00      -0.52    0.16   -0.28
@<TRIPOS>MOLECULE
E5777605
   32    34     0     0     0
SMALL
USER_CHARGES


@<TRIPOS>ATOM
      1 C1         25.0959   15.2278   63.2787 C.3       1            -0.1229
      2 C2         23.5980   15.3769   63.3519 C.ar      1            -0.0527
      3 C3         23.0251   16.6326   63.2548 C.ar      1            -0.0784
      4 C4         21.6545   16.7756   63.3205 C.ar      1            -0.0857
      5 C5         20.8458   15.6508   63.4855 C.ar      1             0.0106
      6 C6         19.3748   15.7971   63.5564 C.2       1             0.3056
      7 N1         18.6109   15.4477   64.5691 N.2       1            -0.4880
      8 C7         17.3331   15.7254   64.2873 C.2       1             0.2765
      9 N2         17.2664   16.2577   63.0859 N.2       1            -0.2764
     10 N3         18.5798   16.3193   62.5931 N.pl3     1            -0.4617
     11 C8         16.1781   15.4734   65.1842 C.ar      1             0.0250
     12 C9         16.2723   14.5582   66.2361 C.ar      1            -0.1223
     13 C10        15.1743   14.3544   67.0466 C.ar      1             0.0995
     14 N4         14.0480   15.0093   66.8380 N.ar      1            -0.4743
     15 C11        13.9176   15.8812   65.8569 C.ar      1             0.0975
     16 C12        14.9681   16.1492   65.0033 C.ar      1            -0.1388
     17 C13        21.4294   14.3878   63.5828 C.ar      1             0.0113
     18 C14        22.8013   14.2572   63.5102 C.ar      1            -0.0663
     19 N5         20.5786   13.1891   63.7578 N.pl3     1             0.0242
     20 O1         19.3766   13.3044   63.8167 O.2       1            -0.1710
     21 O2         21.0858   12.0949   63.8418 O.3       1            -0.0787
     22 H1         25.5529   16.2094   63.1541 H         1             0.0856
     23 H2         25.4608   14.7711   64.1987 H         1             0.0811
     24 H3         25.3569   14.5950   62.4305 H         1             0.0793
     25 H4         23.6521   17.5026   63.1274 H         1             0.1525
     26 H5         21.2084   17.7563   63.2449 H         1             0.1461
     27 H6         18.8617   16.6660   61.7321 H         1             0.4455
     28 H7         17.1909   14.0183   66.4121 H         1             0.1525
     29 H8         15.2375   13.6491   67.8620 H         1             0.1649
     30 H9         12.9773   16.3951   65.7223 H         1             0.1625
     31 H10        14.8558   16.8676   64.2048 H         1             0.1423
     32 H11        23.2542   13.2793   63.5809 H         1             0.1547
@<TRIPOS>BOND
     1    1    2 1 
     2    1   22 1 
     3    1   23 1 
     4    1   24 1 
     5    2   18 ar
     6    2    3 ar
     7    3    4 ar
     8    3   25 1 
     9    4    5 ar
    10    4   26 1 
    11    5    6 1 
    12    5   17 ar
    13    6   10 1 
    14    6    7 2 
    15    7    8 1 
    16    8    9 2 
    17    8   11 1 
    18    9   10 1 
    19   10   27 1 
    20   11   16 ar
    21   11   12 ar
    22   12   13 ar
    23   12   28 1 
    24   13   14 ar
    25   13   29 1 
    26   14   15 ar
    27   15   16 ar
    28   15   30 1 
    29   16   31 1 
    30   17   18 ar
    31   17   19 1 
    32   18   32 1 
    33   19   20 2 
    34   19   21 1 
##########                 Name:             E5779968
##########          Protonation:                  100
##########               SMILES:   CCOC(=O)c1ccc(cc1)c2cc(=O)c3ccccc3o2
##########            Long Name:   ethyl
##########          FlexRecCode: 1
##########               Number:                  289
##########   Ligand Source File: /raidb/db2/rgc/leads-emolecules-300/leads-emolecules-2f-0000463.db2.gz
##########           GlobalRank: 2285
##########                 Rank:                    1
##########               Setnum:                   67
##########             Matchnum:                 6226
##########                Cloud:                    1
##########        Electrostatic:            -5.568481
##########        Van der Waals:           -36.958549
##########  Ligand Polar Desolv:             6.409721
########## Ligand Apolar Desolv:            -5.200492
##########      Internal Energy:             0.000000
##########      Receptor Energy: 0.0
########## Receptor Desolvation:             0.000000
########## Receptor Hydrophobic:             0.000000
##########         Total Energy: -41.32
##########        Ligand Charge:             0.000000
##########            Arbitrary:    +999.9990
##########     heavy atom count:   22
##########           pose count:    1
##########        Ligand Energy:             0.000000
# num electro vdwattr vdwrepu polsolv apolsol rdesolv rhydroe totalscore fullpol fullapo
#   1   -0.88   -1.53    0.30   -0.26   -0.13    0.00    0.00      -2.50   -0.41   -0.20
#   2    0.43   -1.32    0.22    0.00   -0.08    0.00    0.00      -0.74    0.00   -0.12
#   3   -3.16   -2.07    0.60    0.23    0.19    0.00    0.00      -4.21    0.36    0.29
#   4    5.67   -2.21    0.42   -0.90   -0.11    0.00    0.00       2.87   -1.37   -0.16
#   5   -5.56   -2.94    1.06    2.26   -0.26    0.00    0.00      -5.44    3.37   -0.39
#   6   -1.30   -2.44    0.79    0.03   -0.26    0.00    0.00      -3.19    0.04   -0.41
#   7   -0.54   -2.88    0.82   -0.08   -0.29    0.00    0.00      -2.98   -0.13   -0.45
#   8   -0.66   -2.75    0.65   -0.16   -0.30    0.00    0.00      -3.21   -0.24   -0.46
#   9   -0.40   -2.22    0.60   -0.04   -0.26    0.00    0.00      -2.32   -0.06   -0.41
#  10   -1.35   -2.68    0.83   -0.05   -0.26    0.00    0.00      -3.51   -0.09   -0.44
#  11   -0.74   -3.03    1.20    0.00   -0.27    0.00    0.00      -2.84    0.00   -0.46
#  12    1.78   -1.92    0.36   -0.10   -0.18    0.00    0.00      -0.06   -0.17   -0.32
#  13   -1.29   -2.86    1.65    0.65   -0.26    0.00    0.00      -2.10    1.08   -0.44
#  14    1.79   -2.84    1.66   -1.71   -0.19    0.00    0.00      -1.30   -2.73   -0.31
#  15   -2.39   -4.78    3.06    3.94    0.29    0.00    0.00       0.13    5.93    0.44
#  16   -0.86   -2.01    0.54    0.60   -0.23    0.00    0.00      -1.96    1.08   -0.41
#  17   -0.03   -2.32    1.04    0.08   -0.23    0.00    0.00      -1.46    0.16   -0.45
#  18    0.14   -1.79    0.49   -0.12   -0.20    0.00    0.00      -1.48   -0.28   -0.47
#  19    0.08   -1.58    0.28   -0.08   -0.19    0.00    0.00      -1.49   -0.19   -0.47
#  20   -0.34   -1.98    0.65   -0.19   -0.21    0.00    0.00      -2.07   -0.43   -0.46
#  21    0.84   -2.12    1.01   -0.04   -0.15    0.00    0.00      -0.45   -0.09   -0.32
#  22   -2.44   -1.84    0.61    0.00    0.12    0.00    0.00      -3.54    0.00    0.24
#  23    0.29   -0.43    0.12    0.21   -0.13    0.00    0.00       0.05    0.45   -0.28
#  24    0.21   -0.93    0.73    0.13   -0.15    0.00    0.00      -0.02    0.24   -0.28
#  25    0.64   -0.48    0.15    0.10   -0.12    0.00    0.00       0.28    0.23   -0.28
#  26    0.44   -0.51    0.22   -0.02   -0.15    0.00    0.00      -0.02   -0.04   -0.28
#  27    0.51   -0.44    0.10   -0.02   -0.13    0.00    0.00       0.03   -0.04   -0.28
#  28    0.68   -0.71    0.19    0.47   -0.16    0.00    0.00       0.48    0.81   -0.27
#  29    0.37   -0.67    0.14    0.59   -0.16    0.00    0.00       0.26    0.96   -0.27
#  30    1.96   -0.62    0.23    0.23   -0.11    0.00    0.00       1.69    0.44   -0.21
#  31    1.02   -1.09    1.66   -0.03   -0.15    0.00    0.00       1.42   -0.05   -0.26
#  32    0.12   -0.92    0.64   -0.15   -0.11    0.00    0.00      -0.42   -0.27   -0.20
#  33    0.00   -0.60    0.24   -0.25   -0.13    0.00    0.00      -0.73   -0.52   -0.27
#  34   -0.35   -0.27    0.04    0.22   -0.07    0.00    0.00      -0.44    0.84   -0.28
#  35   -0.65   -0.26    0.03    0.43   -0.07    0.00    0.00      -0.53    1.72   -0.28
#  36    0.37   -0.48    0.22    0.46   -0.10    0.00    0.00       0.47    1.24   -0.28
@<TRIPOS>MOLECULE
E5779968
   36    38     0     0     0
SMALL
USER_CHARGES


@<TRIPOS>ATOM
      1 C1         11.0137   14.4718   63.4826 C.3       1            -0.1531
      2 C2         11.4624   14.9527   64.8641 C.3       1             0.0605
      3 O1         12.5400   15.8800   64.7188 O.3       1            -0.3473
      4 C3         13.4406   15.9324   65.7192 C.2       1             0.5068
      5 O2         13.0841   16.2255   66.8427 O.2       1            -0.4967
      6 C4         14.8625   15.6334   65.4497 C.ar      1            -0.1029
      7 C5         15.6600   15.0720   66.4499 C.ar      1            -0.0633
      8 C6         16.9847   14.7929   66.1987 C.ar      1            -0.0927
      9 C7         17.5312   15.0713   64.9433 C.ar      1            -0.0353
     10 C8         16.7336   15.6328   63.9430 C.ar      1            -0.0925
     11 C9         15.4076   15.9068   64.1928 C.ar      1            -0.0542
     12 C10        18.9527   14.7724   64.6737 C.2       1             0.2015
     13 C11        19.3818   13.4871   64.7819 C.2       1            -0.3046
     14 C12        20.7412   13.1818   64.5266 C.2       1             0.4210
     15 O3         21.1621   12.0405   64.6131 O.2       1            -0.4641
     16 C13        21.6279   14.3007   64.1508 C.ar      1            -0.2233
     17 C14        22.9800   14.0951   63.8809 C.ar      1            -0.0304
     18 C15        23.7741   15.1658   63.5331 C.ar      1            -0.1466
     19 C16        23.2333   16.4409   63.4517 C.ar      1            -0.0556
     20 C17        21.8978   16.6570   63.7167 C.ar      1            -0.1391
     21 C18        21.0794   15.5904   64.0688 C.ar      1             0.1461
     22 O4         19.7686   15.7794   64.3264 O.3       1            -0.2196
     23 H1         10.1916   13.7645   63.5934 H         1             0.0822
     24 H2         10.6817   15.3250   62.8911 H         1             0.0678
     25 H3         11.8480   13.9833   62.9793 H         1             0.0678
     26 H4         10.6280   15.4411   65.3676 H         1             0.0706
     27 H5         11.7944   14.0994   65.4556 H         1             0.0705
     28 H6         15.2375   14.8571   67.4203 H         1             0.1488
     29 H7         17.6013   14.3592   66.9720 H         1             0.1457
     30 H8         17.1560   15.8480   62.9726 H         1             0.1476
     31 H9         14.7898   16.3371   63.4184 H         1             0.1502
     32 H10        18.6914   12.7046   65.0606 H         1             0.1647
     33 H11        23.4023   13.1030   63.9443 H         1             0.1435
     34 H12        24.8224   15.0120   63.3232 H         1             0.1382
     35 H13        23.8652   17.2729   63.1782 H         1             0.1428
     36 H14        21.4881   17.6541   63.6509 H         1             0.1451
@<TRIPOS>BOND
     1    1    2 1 
     2    1   23 1 
     3    1   24 1 
     4    1   25 1 
     5    2    3 1 
     6    2   26 1 
     7    2   27 1 
     8    3    4 1 
     9    4    5 2 
    10    4    6 1 
    11    6   11 ar
    12    6    7 ar
    13    7    8 ar
    14    7   28 1 
    15    8    9 ar
    16    8   29 1 
    17    9   10 ar
    18    9   12 1 
    19   10   11 ar
    20   10   30 1 
    21   11   31 1 
    22   12   22 1 
    23   12   13 2 
    24   13   14 1 
    25   13   32 1 
    26   14   15 2 
    27   14   16 1 
    28   16   21 ar
    29   16   17 ar
    30   17   18 ar
    31   17   33 1 
    32   18   19 ar
    33   18   34 1 
    34   19   20 ar
    35   19   35 1 
    36   20   21 ar
    37   20   36 1 
    38   21   22 1 
##########                 Name:             E2252140
##########          Protonation:                   66
##########               SMILES:   COc1ccc(cc1OC)CN2CC[NH+](CC2)CCO
##########            Long Name:   2-[4-[(3,4-dimethoxyphenyl)methyl]piperazin-1-ium-1-yl]ethanol
##########          FlexRecCode: 1
##########               Number:                  129
##########   Ligand Source File: /raidb/db2/rgc/leads-emolecules-300/leads-lt300-emolecules-1j-0000143.db2.gz
##########           GlobalRank: 2285
##########                 Rank:                    1
##########               Setnum:                   12
##########             Matchnum:                 5913
##########                Cloud:                    1
##########        Electrostatic:           -26.869658
##########        Van der Waals:           -24.133804
##########  Ligand Polar Desolv:            10.526495
########## Ligand Apolar Desolv:            -0.843393
##########      Internal Energy:             0.000000
##########      Receptor Energy: 0.0
########## Receptor Desolvation:             0.000000
########## Receptor Hydrophobic:             0.000000
##########         Total Energy: -41.32
##########        Ligand Charge:             1.000000
##########            Arbitrary:    +999.9990
##########     heavy atom count:   20
##########           pose count:    1
##########        Ligand Energy:             0.000000
# num electro vdwattr vdwrepu polsolv apolsol rdesolv rhydroe totalscore fullpol fullapo
#   1    0.07   -2.58    1.34    0.07    0.02    0.00    0.00      -1.08    0.11    0.03
#   2   -1.03   -1.88    0.24   -0.61    0.39    0.00    0.00      -2.89   -0.96    0.62
#   3    0.40   -1.78    0.38   -0.05   -0.18    0.00    0.00      -1.23   -0.09   -0.31
#   4   -0.21   -2.07    0.56   -1.01   -0.22    0.00    0.00      -2.94   -1.94   -0.42
#   5    0.03   -1.83    0.51   -0.64   -0.16    0.00    0.00      -2.10   -1.45   -0.37
#   6    0.00   -1.66    0.32   -0.44   -0.14    0.00    0.00      -1.92   -1.03   -0.34
#   7   -0.35   -1.34    0.33    0.85   -0.14    0.00    0.00      -0.64    2.05   -0.33
#   8    4.44   -0.94    0.06   -4.38    1.17    0.00    0.00       0.35  -12.68    3.38
#   9   -0.26   -0.67    0.08    0.14   -0.12    0.00    0.00      -0.82    0.50   -0.43
#  10    0.81   -0.57    0.08   -0.30   -0.09    0.00    0.00      -0.08   -1.12   -0.35
#  11    9.62   -1.85    1.70   -3.98    0.10    0.00    0.00       5.59  -11.07    0.28
#  12  -18.17   -0.22    0.15    4.83    0.18    0.00    0.00     -13.23   13.38    0.51
#  13    0.13   -1.16    0.28    0.12   -0.14    0.00    0.00      -0.78    0.32   -0.38
#  14   -0.78   -0.91    0.18    0.25   -0.04    0.00    0.00      -1.30    0.79   -0.14
#  15    7.33   -1.97    1.04   -4.99    0.58    0.00    0.00       1.99  -14.42    1.68
#  16    1.06   -1.15    0.24   -0.36   -0.15    0.00    0.00      -0.35   -0.86   -0.37
#  17   -0.37   -0.66    0.04    0.31   -0.18    0.00    0.00      -0.86    0.75   -0.44
#  18   -0.60   -1.89    0.59   -0.73   -0.18    0.00    0.00      -2.81   -1.64   -0.40
#  19    0.63   -1.63    0.33   -0.04   -0.16    0.00    0.00      -0.86   -0.08   -0.31
#  20   -3.16   -1.35    0.14   -0.46    0.33    0.00    0.00      -4.50   -0.86    0.62
#  21    0.31   -1.40    0.31    0.08    0.02    0.00    0.00      -0.68    0.13    0.03
#  22    0.02   -1.34    1.83    0.56   -0.19    0.00    0.00       0.87    0.81   -0.27
#  23    0.21   -0.80    0.62    0.44   -0.16    0.00    0.00       0.30    0.73   -0.26
#  24    0.30   -1.10    0.90    0.46   -0.18    0.00    0.00       0.38    0.71   -0.28
#  25    0.05   -0.60    0.21    0.98   -0.10    0.00    0.00       0.53    2.06   -0.22
#  26   -0.18   -0.34    0.07    1.34   -0.08    0.00    0.00       0.82    4.68   -0.27
#  27   -0.29   -0.54    0.11    0.80   -0.12    0.00    0.00      -0.03    1.82   -0.27
#  28   -0.23   -1.07    1.59    1.14   -0.06    0.00    0.00       1.38    3.12   -0.17
#  29   -1.21   -0.30    0.04    0.42   -0.05    0.00    0.00      -1.10    1.70   -0.20
#  30   -0.84   -0.35    0.22    0.46   -0.05    0.00    0.00      -0.56    2.44   -0.28
#  31   -1.50   -0.12    0.01    0.54   -0.02    0.00    0.00      -1.10    4.88   -0.21
#  32   -1.76   -0.16    0.02    0.79   -0.03    0.00    0.00      -1.15    5.05   -0.22
#  33   -4.22   -0.71    0.57    1.65   -0.11    0.00    0.00      -2.81    4.27   -0.28
#  34   -2.72   -0.40    0.20    1.64   -0.08    0.00    0.00      -1.36    5.92   -0.28
#  35   -1.68   -0.37    0.17    0.44   -0.07    0.00    0.00      -1.52    1.69   -0.28
#  36   -0.74   -0.14    0.01    0.40   -0.03    0.00    0.00      -0.51    2.78   -0.23
#  37   -7.31   -0.10    0.03    3.12    0.40    0.00    0.00      -3.87    9.75    1.24
#  38   -3.32   -0.48    0.12    1.97   -0.10    0.00    0.00      -1.80    4.75   -0.23
#  39   -2.71   -0.52    0.28    1.96   -0.10    0.00    0.00      -1.09    5.29   -0.28
#  40   -0.82   -0.25    0.05    0.61   -0.07    0.00    0.00      -0.47    2.61   -0.28
#  41   -1.56   -0.23    0.02    0.61   -0.07    0.00    0.00      -1.24    2.48   -0.28
#  42    0.90   -0.53    0.31    0.59   -0.08    0.00    0.00       1.18    1.67   -0.22
#  43    1.54   -0.35    0.04    0.30   -0.12    0.00    0.00       1.41    0.69   -0.28
#  44    0.43   -0.43    0.10    0.32   -0.12    0.00    0.00       0.30    0.70   -0.27
#  45    0.88   -0.91    1.10    0.33   -0.13    0.00    0.00       1.27    0.68   -0.27
@<TRIPOS>MOLECULE
E2252140
   45    46     0     0     0
SMALL
USER_CHARGES


@<TRIPOS>ATOM
      1 C1         20.0791   12.3653   62.4543 C.3       1             0.0243
      2 O1         20.4580   12.9371   63.7079 O.3       1            -0.3022
      3 C2         21.2285   14.0570   63.6680 C.ar      1             0.1127
      4 C3         22.6099   13.9493   63.6530 C.ar      1            -0.1726
      5 C4         23.3917   15.0886   63.6119 C.ar      1            -0.1179
      6 C5         22.7984   16.3371   63.5861 C.ar      1            -0.0954
      7 C6         23.6554   17.5760   63.5419 C.3       1             0.0904
      8 N1         23.9160   17.9414   62.1432 N.3       1            -0.5201
      9 C7         24.8185   19.0982   62.0603 C.3       1             0.0266
     10 C8         25.1157   19.4024   60.5905 C.3       1            -0.0558
     11 N2         23.8594   19.6901   59.8859 N.4       1            -0.3776
     12 H1         24.0569   19.9001   58.9191 H         1             0.4313
     13 C9         23.2003   20.8438   60.5124 C.3       1            -0.0053
     14 C10        24.1211   22.0629   60.4320 C.3       1             0.0457
     15 O2         24.4000   22.3596   59.0621 O.3       1            -0.5804
     16 C11        22.9735   18.5208   59.9612 C.3       1            -0.0502
     17 C12        22.6614   18.2103   61.4267 C.3       1             0.0315
     18 C13        21.4208   16.4517   63.6004 C.ar      1            -0.1477
     19 C14        20.6313   15.3135   63.6362 C.ar      1             0.1070
     20 O3         19.2759   15.4243   63.6452 O.3       1            -0.3023
     21 C15        18.6409   15.5147   64.9221 C.3       1             0.0248
     22 H2         19.4682   11.4797   62.6287 H         1             0.0565
     23 H3         19.5068   13.0944   61.8806 H         1             0.0571
     24 H4         20.9735   12.0859   61.8973 H         1             0.1064
     25 H5         23.0757   12.9752   63.6738 H         1             0.1386
     26 H6         24.4682   15.0033   63.6003 H         1             0.1173
     27 H7         23.1367   18.3946   64.0408 H         1             0.0985
     28 H8         24.6006   17.3822   64.0490 H         1             0.0464
     29 H9         24.3440   19.9639   62.5226 H         1             0.1289
     30 H10        25.7492   18.8718   62.5807 H         1             0.1053
     31 H11        25.7754   20.2675   60.5247 H         1             0.1291
     32 H12        25.6004   18.5405   60.1319 H         1             0.1370
     33 H13        22.2680   21.0575   59.9900 H         1             0.1385
     34 H14        22.9876   20.6175   61.5573 H         1             0.1394
     35 H15        23.6322   22.9189   60.8968 H         1             0.0954
     36 H16        25.0536   21.8491   60.9545 H         1             0.0710
     37 H17        24.8362   21.6405   58.5849 H         1             0.4101
     38 H18        22.0461   18.7328   59.4292 H         1             0.1284
     39 H19        23.4660   17.6620   59.5049 H         1             0.1389
     40 H20        22.0148   17.3348   61.4836 H         1             0.1067
     41 H21        22.1589   19.0645   61.8806 H         1             0.1262
     42 H22        20.9599   17.4282   63.5799 H         1             0.1385
     43 H23        17.5626   15.5985   64.7866 H         1             0.1059
     44 H24        18.8655   14.6207   65.5038 H         1             0.0562
     45 H25        19.0101   16.3940   65.4501 H         1             0.0571
@<TRIPOS>BOND
     1    1    2 1 
     2    1   22 1 
     3    1   23 1 
     4    1   24 1 
     5    2    3 1 
     6    3   19 ar
     7    3    4 ar
     8    4    5 ar
     9    4   25 1 
    10    5    6 ar
    11    5   26 1 
    12    6    7 1 
    13    6   18 ar
    14    7    8 1 
    15    7   27 1 
    16    7   28 1 
    17    8   17 1 
    18    8    9 1 
    19    9   10 1 
    20    9   29 1 
    21    9   30 1 
    22   10   11 1 
    23   10   31 1 
    24   10   32 1 
    25   11   12 1 
    26   11   13 1 
    27   11   16 1 
    28   13   14 1 
    29   13   33 1 
    30   13   34 1 
    31   14   15 1 
    32   14   35 1 
    33   14   36 1 
    34   15   37 1 
    35   16   17 1 
    36   16   38 1 
    37   16   39 1 
    38   17   40 1 
    39   17   41 1 
    40   18   19 ar
    41   18   42 1 
    42   19   20 1 
    43   20   21 1 
    44   21   43 1 
    45   21   44 1 
    46   21   45 1 
##########                 Name:            E17074116
##########          Protonation:                  100
##########               SMILES:   CC[C@@H](C)Nc1nc(cc(n1)C(F)F)c2ccc(cc2)F
##########            Long Name:   (difluoromethyl)-6-(4-fluorophenyl)-N-[(1R)-1-methylpropyl]pyrimidin-2-amine
##########          FlexRecCode: 1
##########               Number:                  288
##########   Ligand Source File: /raidb/db2/rgc/leads-emolecules-300/leads-emolecules-2g-0000270.db2.gz
##########           GlobalRank: 2319
##########                 Rank:                    1
##########               Setnum:                   43
##########             Matchnum:                 1229
##########                Cloud:                    1
##########        Electrostatic:            -9.432425
##########        Van der Waals:           -29.811993
##########  Ligand Polar Desolv:             3.380945
########## Ligand Apolar Desolv:            -5.430243
##########      Internal Energy:             0.000000
##########      Receptor Energy: 0.0
########## Receptor Desolvation:             0.000000
########## Receptor Hydrophobic:             0.000000
##########         Total Energy: -41.29
##########        Ligand Charge:             0.000000
##########            Arbitrary:    +999.9990
##########     heavy atom count:   21
##########           pose count:    1
##########        Ligand Energy:             0.000000
# num electro vdwattr vdwrepu polsolv apolsol rdesolv rhydroe totalscore fullpol fullapo
#   1    3.26   -1.33    0.30   -0.09   -0.10    0.00    0.00       2.04   -0.19   -0.20
#   2    2.14   -0.73    0.05   -0.11   -0.10    0.00    0.00       1.24   -0.26   -0.24
#   3   -1.09   -0.77    0.06   -0.01   -0.10    0.00    0.00      -1.91   -0.02   -0.25
#   4    0.77   -1.68    0.40    0.04   -0.09    0.00    0.00      -0.56    0.08   -0.19
#   5    0.10   -2.26    1.64    0.39    0.61    0.00    0.00       0.48    0.86    1.35
#   6    3.86   -1.90    0.65   -0.88   -2.16    0.00    0.00      -0.43   -1.94   -4.78
#   7   -9.57   -2.94    2.46    1.00    0.94    0.00    0.00      -8.10    1.96    1.84
#   8    2.99   -1.75    0.26   -0.26   -0.42    0.00    0.00       0.82   -0.46   -0.74
#   9   -1.46   -1.73    0.24    0.01   -0.25    0.00    0.00      -3.19    0.02   -0.42
#  10    0.50   -2.00    1.24   -0.11   -0.41    0.00    0.00      -0.79   -0.19   -0.72
#  11   -0.98   -2.14    2.07    0.89    0.74    0.00    0.00       0.59    2.03    1.69
#  12    0.64   -2.02    1.29    0.14   -0.07    0.00    0.00      -0.03    0.23   -0.11
#  13   -0.88   -2.04    0.80    0.35   -0.29    0.00    0.00      -2.06    0.58   -0.47
#  14   -0.61   -2.79    1.75   -0.03   -0.30    0.00    0.00      -1.98   -0.04   -0.45
#  15   -0.90   -2.08    0.42    0.02   -0.26    0.00    0.00      -2.79    0.04   -0.41
#  16   -0.39   -2.75    0.59   -0.06   -0.28    0.00    0.00      -2.88   -0.09   -0.44
#  17   -0.58   -3.53    1.07   -0.14   -0.31    0.00    0.00      -3.50   -0.21   -0.47
#  18    1.01   -2.89    0.93   -0.04   -0.22    0.00    0.00      -1.22   -0.07   -0.34
#  19   -0.95   -1.70    0.41    0.24   -0.32    0.00    0.00      -2.32    0.37   -0.48
#  20   -2.04   -2.81    1.69    0.05   -0.29    0.00    0.00      -3.40    0.08   -0.47
#  21   -0.55   -2.64    0.95    0.02   -0.27    0.00    0.00      -2.48    0.04   -0.46
#  22   -1.77   -0.72    0.40    0.06   -0.13    0.00    0.00      -2.15    0.14   -0.28
#  23   -1.03   -0.58    0.43    0.01   -0.11    0.00    0.00      -1.29    0.02   -0.28
#  24   -0.98   -0.40    0.07    0.00   -0.11    0.00    0.00      -1.41    0.01   -0.26
#  25   -1.36   -0.16    0.01    0.05   -0.05    0.00    0.00      -1.51    0.32   -0.28
#  26   -1.29   -0.32    0.05    0.08   -0.09    0.00    0.00      -1.56    0.26   -0.28
#  27   -0.58   -0.18    0.01   -0.02   -0.05    0.00    0.00      -0.82   -0.14   -0.26
#  28   -0.02   -0.70    0.29   -0.04   -0.13    0.00    0.00      -0.60   -0.09   -0.28
#  29   -0.41   -0.52    0.16    0.03   -0.10    0.00    0.00      -0.85    0.08   -0.28
#  30   -0.34   -0.91    0.43    0.00   -0.14    0.00    0.00      -0.95    0.01   -0.28
#  31   -1.28   -0.09    0.03    0.01    0.21    0.00    0.00      -1.13    0.02    0.58
#  32    0.54   -0.44    0.09    0.34   -0.10    0.00    0.00       0.42    0.67   -0.20
#  33   -0.32   -0.74    0.88    0.45   -0.12    0.00    0.00       0.15    1.04   -0.28
#  34    0.79   -0.80    0.54    0.55   -0.13    0.00    0.00       0.95    0.96   -0.22
#  35   -0.33   -1.08    0.45    0.43   -0.18    0.00    0.00      -0.72    0.65   -0.28
#  36    1.67   -0.47    0.15    0.07   -0.13    0.00    0.00       1.28    0.15   -0.28
#  37    2.00   -0.58    0.14   -0.08   -0.15    0.00    0.00       1.34   -0.14   -0.27
@<TRIPOS>MOLECULE
E17074116
   37    38     0     0     0
SMALL
USER_CHARGES


@<TRIPOS>ATOM
      1 C1         22.0099   18.4725   59.8819 C.3       1            -0.1533
      2 C2         22.5414   19.0940   61.1751 C.3       1            -0.1329
      3 C3         22.3579   18.1059   62.3288 C.3       1             0.1551
      4 C4         22.8893   18.7274   63.6220 C.3       1            -0.1644
      5 N1         20.9346   17.7961   62.4848 N.pl3     1            -0.6865
      6 C5         20.5444   16.5587   62.9668 C.ar      1             0.5814
      7 N2         19.4168   16.4602   63.6532 N.ar      1            -0.5574
      8 C6         19.0142   15.2844   64.1300 C.ar      1             0.2741
      9 C7         19.8007   14.1531   63.8953 C.ar      1            -0.2563
     10 C8         20.9710   14.3025   63.1734 C.ar      1             0.1509
     11 N3         21.3067   15.5021   62.7248 N.ar      1            -0.5437
     12 C9         21.8515   13.1116   62.8952 C.3       1             0.3285
     13 F1         22.2754   12.5521   64.1054 F         1            -0.1816
     14 F2         21.1305   12.1583   62.1679 F         1            -0.1883
     15 C10        17.7510   15.1767   64.8989 C.ar      1            -0.0764
     16 C11        17.7708   14.7187   66.2155 C.ar      1            -0.0566
     17 C12        16.5934   14.6205   66.9271 C.ar      1            -0.1583
     18 C13        15.3919   14.9763   66.3353 C.ar      1             0.1219
     19 F3         14.2410   14.8790   67.0361 F         1            -0.1336
     20 C14        15.3673   15.4320   65.0268 C.ar      1            -0.1616
     21 C15        16.5406   15.5385   64.3093 C.ar      1            -0.0384
     22 H1         22.1407   19.1764   59.0601 H         1             0.0577
     23 H2         22.5597   17.5563   59.6666 H         1             0.0554
     24 H3         20.9510   18.2420   59.9980 H         1             0.0542
     25 H4         23.6004   19.3246   61.0591 H         1             0.0827
     26 H5         21.9916   20.0102   61.3906 H         1             0.0688
     27 H6         22.9077   17.1897   62.1133 H         1             0.0934
     28 H7         22.7585   18.0234   64.4438 H         1             0.0610
     29 H8         23.9483   18.9579   63.5060 H         1             0.0682
     30 H9         22.3395   19.6436   63.8374 H         1             0.0554
     31 H10        20.2656   18.4581   62.2502 H         1             0.4144
     32 H11        19.5018   13.1850   64.2691 H         1             0.1548
     33 H12        22.7198   13.4287   62.3176 H         1             0.1363
     34 H13        18.7067   14.4409   66.6774 H         1             0.1417
     35 H14        16.6077   14.2655   67.9471 H         1             0.1442
     36 H15        14.4287   15.7082   64.5695 H         1             0.1425
     37 H16        16.5211   15.8980   63.2910 H         1             0.1467
@<TRIPOS>BOND
     1    1    2 1 
     2    1   22 1 
     3    1   23 1 
     4    1   24 1 
     5    2    3 1 
     6    2   25 1 
     7    2   26 1 
     8    3    4 1 
     9    3    5 1 
    10    3   27 1 
    11    4   28 1 
    12    4   29 1 
    13    4   30 1 
    14    5    6 1 
    15    5   31 1 
    16    6   11 ar
    17    6    7 ar
    18    7    8 ar
    19    8    9 ar
    20    8   15 1 
    21    9   10 ar
    22    9   32 1 
    23   10   11 ar
    24   10   12 1 
    25   12   13 1 
    26   12   14 1 
    27   12   33 1 
    28   15   21 ar
    29   15   16 ar
    30   16   17 ar
    31   16   34 1 
    32   17   18 ar
    33   17   35 1 
    34   18   19 1 
    35   18   20 ar
    36   20   21 ar
    37   20   36 1 
    38   21   37 1 
##########                 Name:            E42892093
##########          Protonation:                  100
##########               SMILES:   COc1cc(ccc1O)CCNC(=[NH2+])NCc2ccccc2
##########            Long Name:   [(benzylamino)-[2-(4-hydroxy-3-methoxy-phenyl)ethylamino]methylene]ammonium
##########          FlexRecCode: 1
##########               Number:                  100
##########   Ligand Source File: /raidb/db2/rgc/leads-emolecules-300/leads-emolecules-3-cb-0000006.db2.gz
##########           GlobalRank: 2341
##########                 Rank:                    1
##########               Setnum:                  389
##########             Matchnum:                 6970
##########                Cloud:                    1
##########        Electrostatic:           -22.016451
##########        Van der Waals:           -26.737398
##########  Ligand Polar Desolv:             9.132730
########## Ligand Apolar Desolv:            -1.653477
##########      Internal Energy:             0.000000
##########      Receptor Energy: 0.0
########## Receptor Desolvation:             0.000000
########## Receptor Hydrophobic:             0.000000
##########         Total Energy: -41.27
##########        Ligand Charge:             1.000000
##########            Arbitrary:    +999.9990
##########     heavy atom count:   22
##########           pose count:    1
##########        Ligand Energy:             0.000000
# num electro vdwattr vdwrepu polsolv apolsol rdesolv rhydroe totalscore fullpol fullapo
#   1    0.18   -1.63    0.51    0.07    0.02    0.00    0.00      -0.85    0.12    0.03
#   2   -2.36   -1.84    0.62   -1.30    0.37    0.00    0.00      -4.53   -2.21    0.62
#   3    0.62   -1.62    0.22    0.18   -0.18    0.00    0.00      -0.78    0.31   -0.31
#   4   -1.18   -1.65    0.35   -1.18   -0.19    0.00    0.00      -3.86   -2.51   -0.40
#   5   -0.12   -1.57    0.36   -0.23   -0.16    0.00    0.00      -1.72   -0.53   -0.36
#   6    0.16   -0.91    0.10   -0.84   -0.10    0.00    0.00      -1.59   -1.98   -0.23
#   7   -0.77   -0.75    0.13    1.15   -0.15    0.00    0.00      -0.40    2.94   -0.38
#   8    8.73   -0.88    0.04   -7.51    0.64    0.00    0.00       1.01  -19.92    1.71
#   9  -15.37   -1.37    0.31    7.98   -1.80    0.00    0.00     -10.25   21.84   -4.93
#  10   20.68   -3.36    2.25  -10.23    0.39    0.00    0.00       9.74  -23.06    0.89
#  11   -9.23   -0.05    0.00    6.01    0.20    0.00    0.00      -3.07   14.09    0.48
#  12  -17.12   -0.18    0.04    7.04    0.24    0.00    0.00      -9.97   13.81    0.48
#  13   15.41   -1.67    0.83   -6.30    0.56    0.00    0.00       8.82  -19.35    1.72
#  14   -1.85   -0.67    0.09    1.17   -0.12    0.00    0.00      -1.37    3.97   -0.39
#  15    1.44   -1.11    0.24   -0.56   -0.11    0.00    0.00      -0.09   -1.94   -0.37
#  16    0.03   -0.80    0.07   -0.43   -0.12    0.00    0.00      -1.24   -1.68   -0.45
#  17    0.00   -0.98    0.22   -0.61   -0.14    0.00    0.00      -1.51   -2.04   -0.47
#  18    0.39   -0.93    0.08   -0.57   -0.16    0.00    0.00      -1.18   -1.71   -0.47
#  19    1.44   -1.56    0.54   -0.67   -0.15    0.00    0.00      -0.40   -2.04   -0.47
#  20    1.64   -1.98    0.93   -0.55   -0.15    0.00    0.00      -0.10   -1.68   -0.45
#  21   -0.04   -1.79    0.49   -0.90   -0.21    0.00    0.00      -2.45   -1.90   -0.45
#  22   -0.25   -2.43    0.62   -0.74   -0.27    0.00    0.00      -3.07   -1.29   -0.46
#  23    0.33   -2.11    0.35   -0.11   -0.19    0.00    0.00      -1.74   -0.18   -0.31
#  24   -0.49   -3.46    1.39   -1.31    0.54    0.00    0.00      -3.33   -1.95    0.80
#  25    0.44   -0.66    0.46    0.44   -0.11    0.00    0.00       0.57    1.03   -0.26
#  26    0.32   -0.74    0.53    0.53   -0.14    0.00    0.00       0.50    1.04   -0.28
#  27    0.60   -0.43    0.08    0.60   -0.13    0.00    0.00       0.73    1.28   -0.27
#  28    1.67   -0.43    0.16    1.07   -0.08    0.00    0.00       2.40    2.98   -0.22
#  29   -0.02   -0.41    0.11    1.06   -0.11    0.00    0.00       0.64    2.77   -0.28
#  30   -0.23   -0.34    0.06    0.78   -0.08    0.00    0.00       0.18    2.59   -0.28
#  31   -0.74   -0.32    0.14    0.68   -0.06    0.00    0.00      -0.30    2.96   -0.27
#  32   -0.78   -0.27    0.06    0.83   -0.07    0.00    0.00      -0.24    3.09   -0.27
#  33   -4.50   -0.02    0.00    2.84    0.12    0.00    0.00      -1.55   13.15    0.57
#  34  -13.20   -0.09    0.02    3.49    0.17    0.00    0.00      -9.62   12.04    0.57
#  35   -1.29   -0.42    0.21    0.92   -0.07    0.00    0.00      -0.64    3.74   -0.27
#  36   -0.74   -0.12    0.00    0.46   -0.03    0.00    0.00      -0.42    3.73   -0.27
#  37    0.26   -0.13    0.01    0.45   -0.04    0.00    0.00       0.54    3.17   -0.28
#  38    0.27   -0.50    0.87    0.33   -0.07    0.00    0.00       0.90    1.32   -0.28
#  39   -0.41   -0.23    0.03    0.22   -0.07    0.00    0.00      -0.46    0.85   -0.28
#  40   -2.01   -0.61    0.51    0.34   -0.07    0.00    0.00      -1.84    1.32   -0.28
#  41   -3.59   -1.08    1.96    1.20   -0.11    0.00    0.00      -1.62    3.18   -0.28
#  42   -0.25   -0.28    0.04    1.00   -0.09    0.00    0.00       0.42    3.28   -0.28
#  43    0.44   -0.94    0.62    0.65   -0.15    0.00    0.00       0.62    1.23   -0.28
#  44   -0.53   -0.07    0.00    1.69    0.75    0.00    0.00       1.84    2.75    1.22
@<TRIPOS>MOLECULE
E42892093
   44    45     0     0     0
SMALL
USER_CHARGES


@<TRIPOS>ATOM
      1 C1         18.1676   14.4119   65.2171 C.3       1             0.0242
      2 O1         18.6647   14.3398   63.8792 O.3       1            -0.3032
      3 C2         20.0137   14.3995   63.7178 C.ar      1             0.1082
      4 C3         20.6399   15.6246   63.5532 C.ar      1            -0.1890
      5 C4         22.0113   15.6836   63.3897 C.ar      1            -0.0714
      6 C5         22.6905   17.0169   63.2108 C.3       1            -0.0863
      7 C6         22.7550   17.3606   61.7212 C.3       1             0.0981
      8 N1         23.4154   18.6567   61.5474 N.pl3     1            -0.6972
      9 C7         23.5888   19.1762   60.2863 C.cat     1             0.7322
     10 N2         23.1657   18.5155   59.2455 N.pl3     1            -0.7740
     11 H1         22.7286   17.6572   59.3605 H         1             0.4403
     12 H2         23.2881   18.8821   58.3558 H         1             0.4405
     13 N3         24.2085   20.3924   60.1232 N.pl3     1            -0.6923
     14 C8         24.6842   21.1351   61.2930 C.3       1             0.1448
     15 C9         24.6283   22.6135   61.0064 C.ar      1            -0.1383
     16 C10        25.5355   23.4682   61.6041 C.ar      1            -0.0927
     17 C11        25.4843   24.8244   61.3412 C.ar      1            -0.1182
     18 C12        24.5260   25.3257   60.4802 C.ar      1            -0.0909
     19 C13        23.6194   24.4708   59.8817 C.ar      1            -0.1183
     20 C14        23.6734   23.1142   60.1413 C.ar      1            -0.0928
     21 C15        22.7611   14.5220   63.3903 C.ar      1            -0.1316
     22 C16        22.1427   13.2966   63.5537 C.ar      1            -0.1029
     23 C17        20.7690   13.2308   63.7233 C.ar      1             0.0875
     24 O2         20.1598   12.0264   63.8901 O.3       1            -0.4854
     25 H3         17.0792   14.3532   65.2038 H         1             0.0572
     26 H4         18.5691   13.5823   65.7991 H         1             0.1068
     27 H5         18.4752   15.3550   65.6686 H         1             0.0549
     28 H6         20.0564   16.5334   63.5522 H         1             0.1337
     29 H7         22.1252   17.7861   63.7370 H         1             0.0938
     30 H8         23.7011   16.9672   63.6164 H         1             0.0905
     31 H9         23.3203   16.5914   61.1950 H         1             0.0922
     32 H10        21.7446   17.4103   61.3158 H         1             0.0946
     33 H11        23.7302   19.1484   62.3220 H         1             0.4350
     34 H12        24.3309   20.7589   59.2334 H         1             0.4350
     35 H13        24.0509   20.9070   62.1503 H         1             0.0980
     36 H14        25.7119   20.8463   61.5133 H         1             0.0983
     37 H15        26.2841   23.0766   62.2768 H         1             0.1270
     38 H16        26.1926   25.4922   61.8087 H         1             0.1324
     39 H17        24.4856   26.3854   60.2753 H         1             0.1325
     40 H18        22.8704   24.8627   59.2093 H         1             0.1323
     41 H19        22.9674   22.4459   59.6709 H         1             0.1268
     42 H20        23.8324   14.5723   63.2627 H         1             0.1309
     43 H21        22.7307   12.3907   63.5535 H         1             0.1420
     44 H22        19.2003   12.0824   63.9970 H         1             0.3945
@<TRIPOS>BOND
     1    1    2 1 
     2    1   25 1 
     3    1   26 1 
     4    1   27 1 
     5    2    3 1 
     6    3   23 ar
     7    3    4 ar
     8    4    5 ar
     9    4   28 1 
    10    5    6 1 
    11    5   21 ar
    12    6    7 1 
    13    6   29 1 
    14    6   30 1 
    15    7    8 1 
    16    7   31 1 
    17    7   32 1 
    18    8    9 1 
    19    8   33 1 
    20    9   10 2 
    21    9   13 1 
    22   10   11 1 
    23   10   12 1 
    24   13   14 1 
    25   13   34 1 
    26   14   15 1 
    27   14   35 1 
    28   14   36 1 
    29   15   20 ar
    30   15   16 ar
    31   16   17 ar
    32   16   37 1 
    33   17   18 ar
    34   17   38 1 
    35   18   19 ar
    36   18   39 1 
    37   19   20 ar
    38   19   40 1 
    39   20   41 1 
    40   21   22 ar
    41   21   42 1 
    42   22   23 ar
    43   22   43 1 
    44   23   24 1 
    45   24   44 1 
##########                 Name:             E1159294
##########          Protonation:                  100
##########               SMILES:   COc1ccc(cc1)NCN2C(=O)c3ccccc3C2=O
##########            Long Name:   2-[(4-methoxyanilino)methyl]isoindoline-1,3-dione
##########          FlexRecCode: 1
##########               Number:                  552
##########   Ligand Source File: /raidb/db2/rgc/leads-emolecules-300/2-leads-lt300-emolecules-1-0000029.db2.gz
##########           GlobalRank: 2347
##########                 Rank:                    1
##########               Setnum:                   54
##########             Matchnum:                 1106
##########                Cloud:                    1
##########        Electrostatic:           -10.024935
##########        Van der Waals:           -33.603245
##########  Ligand Polar Desolv:             4.849701
########## Ligand Apolar Desolv:            -2.479116
##########      Internal Energy:             0.000000
##########      Receptor Energy: 0.0
########## Receptor Desolvation:             0.000000
########## Receptor Hydrophobic:             0.000000
##########         Total Energy: -41.26
##########        Ligand Charge:             0.000000
##########            Arbitrary:    +999.9990
##########     heavy atom count:   21
##########           pose count:    1
##########        Ligand Energy:             0.000000
# num electro vdwattr vdwrepu polsolv apolsol rdesolv rhydroe totalscore fullpol fullapo
#   1    0.33   -2.04    0.75   -0.01    0.02    0.00    0.00      -0.95   -0.01    0.03
#   2   -4.03   -2.22    0.68    1.16    0.61    0.00    0.00      -3.80    1.77    0.93
#   3    1.12   -2.48    0.69   -0.16   -0.20    0.00    0.00      -1.03   -0.26   -0.31
#   4   -2.27   -3.10    1.22    0.29   -0.25    0.00    0.00      -4.12    0.48   -0.42
#   5   -1.89   -2.92    1.58    0.21   -0.27    0.00    0.00      -3.29    0.36   -0.46
#   6    1.50   -2.65    1.21   -0.33   -0.45    0.00    0.00      -0.72   -0.52   -0.71
#   7   -4.69   -2.55    0.81    0.58    1.04    0.00    0.00      -4.81    0.97    1.74
#   8    1.76   -1.51    0.52   -0.22   -0.87    0.00    0.00      -0.31   -0.36   -1.45
#   9   -2.96   -1.59    0.22    0.94    1.12    0.00    0.00      -2.27    1.61    1.91
#  10    1.61   -1.94    0.48   -1.29   -0.39    0.00    0.00      -1.52   -2.23   -0.68
#  11   -2.00   -2.89    0.77    1.90    0.22    0.00    0.00      -2.01    3.05    0.35
#  12   -0.04   -1.68    0.44    0.14   -0.20    0.00    0.00      -1.35    0.30   -0.44
#  13    0.10   -1.54    0.28   -0.03   -0.20    0.00    0.00      -1.39   -0.07   -0.48
#  14    0.37   -1.40    0.28   -0.13   -0.16    0.00    0.00      -1.04   -0.39   -0.47
#  15    0.50   -1.50    0.33   -0.15   -0.17    0.00    0.00      -1.00   -0.42   -0.47
#  16    0.11   -1.43    0.17   -0.04   -0.21    0.00    0.00      -1.40   -0.10   -0.48
#  17   -0.22   -1.55    0.31    0.10   -0.19    0.00    0.00      -1.54    0.24   -0.44
#  18    3.92   -1.72    0.39   -0.89   -0.32    0.00    0.00       1.38   -1.89   -0.68
#  19   -7.49   -2.58    1.71    1.33    0.21    0.00    0.00      -6.82    2.67    0.43
#  20   -0.90   -2.93    0.80    0.49   -0.25    0.00    0.00      -2.79    0.75   -0.38
#  21   -1.08   -2.79    0.87    0.51   -0.30    0.00    0.00      -2.79    0.79   -0.46
#  22    0.55   -0.91    0.81    0.05   -0.17    0.00    0.00       0.33    0.08   -0.27
#  23    0.49   -0.65    0.35    0.03   -0.15    0.00    0.00       0.08    0.05   -0.26
#  24    1.38   -0.78    0.34    0.14   -0.18    0.00    0.00       0.88    0.21   -0.28
#  25    0.84   -1.18    1.83   -0.01   -0.13    0.00    0.00       1.36   -0.02   -0.22
#  26    1.46   -0.60    0.24    0.03   -0.14    0.00    0.00       0.99    0.06   -0.28
#  27    2.14   -0.06    0.00    0.03    0.30    0.00    0.00       2.41    0.05    0.59
#  28    0.20   -0.58    0.19    0.08   -0.15    0.00    0.00      -0.27    0.14   -0.27
#  29    0.78   -0.66    0.50   -0.06   -0.09    0.00    0.00       0.47   -0.13   -0.20
#  30   -0.60   -0.35    0.09    0.12   -0.09    0.00    0.00      -0.84    0.35   -0.28
#  31   -0.65   -0.22    0.04    0.30   -0.05    0.00    0.00      -0.59    1.62   -0.28
#  32   -1.11   -0.33    0.11    0.40   -0.07    0.00    0.00      -0.99    1.71   -0.28
#  33   -0.49   -0.32    0.04    0.19   -0.10    0.00    0.00      -0.67    0.54   -0.28
#  34    0.10   -0.74    0.17   -0.42   -0.09    0.00    0.00      -0.98   -0.68   -0.15
#  35    1.13   -0.66    0.22   -0.40   -0.15    0.00    0.00       0.13   -0.74   -0.28
@<TRIPOS>MOLECULE
E1159294
   35    37     0     0     0
SMALL
USER_CHARGES


@<TRIPOS>ATOM
      1 C1         12.9147   16.5008   66.4690 C.3       1             0.0286
      2 O1         13.6177   16.4956   65.2248 O.3       1            -0.3204
      3 C2         14.8484   15.9169   65.2133 C.ar      1             0.0805
      4 C3         15.5873   15.8827   64.0400 C.ar      1            -0.1666
      5 C4         16.8373   15.2957   64.0275 C.ar      1            -0.1442
      6 C5         17.3545   14.7397   65.1901 C.ar      1             0.1600
      7 N1         18.6211   14.1452   65.1784 N.pl3     1            -0.7477
      8 C6         19.2150   13.7112   63.9114 C.3       1             0.3362
      9 N2         20.4774   14.4224   63.6948 N.am      1            -0.5907
     10 C7         21.6752   13.8245   63.5631 C.2       1             0.5742
     11 O2         21.8784   12.6279   63.6049 O.2       1            -0.4509
     12 C8         22.7024   14.8676   63.3590 C.ar      1            -0.1409
     13 C9         24.0749   14.8501   63.1690 C.ar      1            -0.0446
     14 C10        24.7609   16.0430   63.0037 C.ar      1            -0.0943
     15 C11        24.0855   17.2489   63.0270 C.ar      1            -0.0955
     16 C12        22.7128   17.2818   63.2161 C.ar      1            -0.0444
     17 C13        22.0137   16.0970   63.3828 C.ar      1            -0.1442
     18 C14        20.5905   15.7593   63.5956 C.2       1             0.5778
     19 O3         19.6765   16.5554   63.6704 O.2       1            -0.4629
     20 C15        16.6141   14.7744   66.3642 C.ar      1            -0.1379
     21 C16        15.3664   15.3665   66.3762 C.ar      1            -0.1037
     22 H1         11.9499   16.9910   66.3391 H         1             0.0532
     23 H2         12.7591   15.4748   66.8026 H         1             0.0527
     24 H3         13.4992   17.0405   67.2142 H         1             0.0985
     25 H4         15.1848   16.3150   63.1358 H         1             0.1280
     26 H5         17.4125   15.2690   63.1137 H         1             0.1231
     27 H6         19.1060   14.0202   66.0092 H         1             0.4043
     28 H7         19.4039   12.6383   63.9472 H         1             0.1157
     29 H8         18.5287   13.9322   63.0939 H         1             0.1145
     30 H9         24.6078   13.9109   63.1502 H         1             0.1430
     31 H10        25.8307   16.0304   62.8558 H         1             0.1436
     32 H11        24.6312   18.1718   62.8973 H         1             0.1435
     33 H12        22.1903   18.2268   63.2339 H         1             0.1425
     34 H13        17.0154   14.3420   67.2689 H         1             0.1378
     35 H14        14.7922   15.3975   67.2905 H         1             0.1312
@<TRIPOS>BOND
     1    1    2 1 
     2    1   22 1 
     3    1   23 1 
     4    1   24 1 
     5    2    3 1 
     6    3   21 ar
     7    3    4 ar
     8    4    5 ar
     9    4   25 1 
    10    5    6 ar
    11    5   26 1 
    12    6    7 1 
    13    6   20 ar
    14    7    8 1 
    15    7   27 1 
    16    8    9 1 
    17    8   28 1 
    18    8   29 1 
    19    9   18 am
    20    9   10 am
    21   10   11 2 
    22   10   12 1 
    23   12   17 ar
    24   12   13 ar
    25   13   14 ar
    26   13   30 1 
    27   14   15 ar
    28   14   31 1 
    29   15   16 ar
    30   15   32 1 
    31   16   17 ar
    32   16   33 1 
    33   17   18 1 
    34   18   19 2 
    35   20   21 ar
    36   20   34 1 
    37   21   35 1 
##########                 Name:            E44429814
##########          Protonation:                   98
##########               SMILES:   c1cc(c(cc1CN2CC[C@@H]([C@@H](C2)O)[NH3+])C(F)(F)F)F
##########            Long Name:   -[[4-fluoro-3-(trifluoromethyl)phenyl]methyl]-3-hydroxy-4-piperidyl]ammonium
##########          FlexRecCode: 1
##########               Number:                  525
##########   Ligand Source File: /raidb/db2/rgc/leads-emolecules-300/leads-emolecules-2e-0000340.db2.gz
##########           GlobalRank: 2387
##########                 Rank:                    1
##########               Setnum:                    3
##########             Matchnum:                 3719
##########                Cloud:                    1
##########        Electrostatic:           -36.097740
##########        Van der Waals:           -18.007078
##########  Ligand Polar Desolv:            13.518293
########## Ligand Apolar Desolv:            -0.639469
##########      Internal Energy:             0.000000
##########      Receptor Energy: 0.0
########## Receptor Desolvation:             0.000000
########## Receptor Hydrophobic:             0.000000
##########         Total Energy: -41.23
##########        Ligand Charge:             1.000000
##########            Arbitrary:    +999.9990
##########     heavy atom count:   20
##########           pose count:    1
##########        Ligand Energy:             0.000000
# num electro vdwattr vdwrepu polsolv apolsol rdesolv rhydroe totalscore fullpol fullapo
#   1   20.39   -3.74    6.93   -9.34    0.31    0.00    0.00      14.55  -22.34    0.74
#   2  -13.72   -0.06    0.00    6.53    0.22    0.00    0.00      -7.03   16.06    0.54
#   3  -21.27   -0.37    0.42    9.07    0.28    0.00    0.00     -11.87   18.51    0.58
#   4  -11.73   -0.04    0.00    6.15    0.20    0.00    0.00      -5.43   18.23    0.58
#   5   -0.72   -0.91    0.23    0.84   -0.10    0.00    0.00      -0.67    2.33   -0.29
#   6    2.00   -0.85    0.14   -1.26   -0.09    0.00    0.00      -0.05   -3.43   -0.24
#   7   -0.40   -0.98    0.18    0.19   -0.13    0.00    0.00      -1.15    0.53   -0.38
#   8    3.40   -1.04    0.07   -4.00    1.16    0.00    0.00      -0.41  -10.63    3.08
#   9   -0.25   -1.18    0.30    0.64   -0.15    0.00    0.00      -0.64    1.64   -0.39
#  10   -0.04   -1.64    0.34   -0.38   -0.15    0.00    0.00      -1.87   -0.87   -0.34
#  11   -0.15   -1.68    0.41   -0.17   -0.15    0.00    0.00      -1.75   -0.39   -0.34
#  12   -1.15   -1.60    0.29   -0.93   -0.21    0.00    0.00      -3.60   -1.66   -0.37
#  13    0.59   -2.01    0.36    0.18   -0.20    0.00    0.00      -1.09    0.29   -0.33
#  14   -0.24   -1.53    0.27   -0.29   -0.30    0.00    0.00      -2.09   -0.44   -0.45
#  15   -0.36   -2.76    0.85   -0.87   -0.27    0.00    0.00      -3.42   -1.50   -0.47
#  16    0.01   -2.06    0.61   -0.13   -0.22    0.00    0.00      -1.79   -0.27   -0.45
#  17    4.86   -1.10    0.14    1.11   -0.03    0.00    0.00       4.97    1.97   -0.06
#  18   -3.51   -1.64    1.32   -0.50   -0.23    0.00    0.00      -4.57   -0.94   -0.44
#  19   -1.32   -1.99    1.50   -0.30   -0.27    0.00    0.00      -2.38   -0.52   -0.47
#  20   -1.39   -1.02    0.14   -0.20   -0.28    0.00    0.00      -2.75   -0.35   -0.47
#  21   -0.20   -0.83    0.21    0.03   -0.13    0.00    0.00      -0.92    0.08   -0.38
#  22   -1.69   -1.12    0.28    1.07   -0.06    0.00    0.00      -1.51    2.69   -0.15
#  23    9.37   -1.38    0.18   -7.27    0.75    0.00    0.00       1.66  -14.82    1.54
#  24   -2.84   -0.25    0.07    1.16   -0.05    0.00    0.00      -1.91    6.42   -0.28
#  25   -1.31   -0.31    0.10    0.74   -0.06    0.00    0.00      -0.84    3.27   -0.28
#  26   -1.73   -0.38    0.12    0.50   -0.08    0.00    0.00      -1.57    1.66   -0.26
#  27   -0.42   -0.27    0.08    0.22   -0.05    0.00    0.00      -0.44    1.16   -0.28
#  28   -0.53   -0.70    0.34    0.17   -0.08    0.00    0.00      -0.81    0.43   -0.20
#  29   -0.39   -0.27    0.05    0.45   -0.06    0.00    0.00      -0.22    2.03   -0.27
#  30   -0.04   -0.93    0.97    0.40   -0.12    0.00    0.00       0.29    0.96   -0.28
#  31    0.72   -0.36    0.09    0.71   -0.08    0.00    0.00       1.08    2.23   -0.24
#  32    0.90   -1.31    1.44    1.01   -0.16    0.00    0.00       1.87    1.77   -0.28
#  33   -0.40   -0.38    0.09    1.19   -0.10    0.00    0.00       0.39    3.30   -0.28
#  34   -0.51   -0.16    0.01    0.25   -0.05    0.00    0.00      -0.46    1.43   -0.28
#  35   -0.75   -0.66    1.08    0.52   -0.08    0.00    0.00       0.11    1.83   -0.28
#  36   -1.98   -0.78    0.74    1.87   -0.12    0.00    0.00      -0.27    4.24   -0.28
#  37   -9.28   -0.03    0.00    4.19    0.50    0.00    0.00      -4.62   10.18    1.22
@<TRIPOS>MOLECULE
E44429814
   37    38     0     0     0
SMALL
USER_CHARGES


@<TRIPOS>ATOM
      1 N1         23.1444   20.3991   59.3810 N.4       1            -0.6323
      2 H1         22.1596   20.4838   59.5837 H         1             0.4419
      3 H2         23.2663   20.0908   58.4280 H         1             0.4351
      4 H3         23.5914   21.2954   59.5041 H         1             0.4364
      5 C1         23.7502   19.4202   60.2935 C.3       1             0.0339
      6 C2         23.5590   19.8832   61.7406 C.3       1            -0.1362
      7 C3         24.1377   18.8302   62.6885 C.3       1             0.0477
      8 N2         23.4565   17.5476   62.4719 N.3       1            -0.5256
      9 C4         23.8890   16.5487   63.4585 C.3       1             0.0969
     10 C5         22.8652   15.4459   63.5389 C.ar      1            -0.1022
     11 C6         21.5188   15.7559   63.5913 C.ar      1            -0.0428
     12 C7         20.5789   14.7456   63.6650 C.ar      1            -0.2200
     13 C8         20.9862   13.4221   63.6861 C.ar      1             0.1602
     14 F1         20.0683   12.4335   63.7578 F         1            -0.1173
     15 C9         22.3345   13.1130   63.6332 C.ar      1            -0.1515
     16 C10        23.2725   14.1251   63.5546 C.ar      1            -0.0320
     17 C11        19.1115   15.0838   63.7230 C.3       1             0.5119
     18 F2         18.9516   16.4731   63.6891 F         1            -0.1747
     19 F3         18.4576   14.5120   62.6264 F         1            -0.1703
     20 F4         18.5635   14.5800   64.9075 F         1            -0.1677
     21 C12        23.6655   17.0598   61.1027 C.3       1             0.0207
     22 C13        23.0727   18.0597   60.1074 C.3       1             0.0932
     23 O1         21.6688   18.1899   60.3409 O.3       1            -0.5602
     24 H4         24.8144   19.3299   60.0766 H         1             0.1490
     25 H5         24.0756   20.8312   61.8906 H         1             0.0945
     26 H6         22.4958   20.0111   61.9443 H         1             0.1063
     27 H7         25.2037   18.7129   62.4935 H         1             0.0495
     28 H8         23.9904   19.1502   63.7199 H         1             0.1005
     29 H9         24.8495   16.1314   63.1559 H         1             0.0985
     30 H10        23.9902   17.0226   64.4348 H         1             0.0573
     31 H11        21.2014   16.7881   63.5748 H         1             0.1449
     32 H12        22.6532   12.0812   63.6496 H         1             0.1536
     33 H13        24.3243   13.8841   63.5092 H         1             0.1458
     34 H14        24.7337   16.9506   60.9152 H         1             0.0577
     35 H15        23.1753   16.0937   60.9826 H         1             0.1024
     36 H16        23.2418   17.7051   59.0908 H         1             0.0872
     37 H17        21.2273   18.8120   59.7465 H         1             0.4079
@<TRIPOS>BOND
     1    1    2 1 
     2    1    3 1 
     3    1    4 1 
     4    1    5 1 
     5    5   22 1 
     6    5    6 1 
     7    5   24 1 
     8    6    7 1 
     9    6   25 1 
    10    6   26 1 
    11    7    8 1 
    12    7   27 1 
    13    7   28 1 
    14    8    9 1 
    15    8   21 1 
    16    9   10 1 
    17    9   29 1 
    18    9   30 1 
    19   10   16 ar
    20   10   11 ar
    21   11   12 ar
    22   11   31 1 
    23   12   13 ar
    24   12   17 1 
    25   13   14 1 
    26   13   15 ar
    27   15   16 ar
    28   15   32 1 
    29   16   33 1 
    30   17   18 1 
    31   17   19 1 
    32   17   20 1 
    33   21   22 1 
    34   21   34 1 
    35   21   35 1 
    36   22   23 1 
    37   22   36 1 
    38   23   37 1 
##########                 Name:            E32385041
##########          Protonation:                   99
##########               SMILES:   CCCCCC[NH+]1CC[C@@H](CC1)Cn2nnc(c2)CO
##########            Long Name:   [1-[(1-hexylpiperidin-1-ium-4-yl)methyl]triazol-4-yl]methanol
##########          FlexRecCode: 1
##########               Number:                  485
##########   Ligand Source File: /raidb/db2/rgc/leads-emolecules-300/leads-lt300-emolecules-1j-0000210.db2.gz
##########           GlobalRank: 2387
##########                 Rank:                    1
##########               Setnum:                  187
##########             Matchnum:                  180
##########                Cloud:                    1
##########        Electrostatic:           -28.927868
##########        Van der Waals:           -21.587061
##########  Ligand Polar Desolv:            10.069822
########## Ligand Apolar Desolv:            -0.787798
##########      Internal Energy:             0.000000
##########      Receptor Energy: 0.0
########## Receptor Desolvation:             0.000000
########## Receptor Hydrophobic:             0.000000
##########         Total Energy: -41.23
##########        Ligand Charge:             1.000000
##########            Arbitrary:    +999.9990
##########     heavy atom count:   20
##########           pose count:    1
##########        Ligand Energy:             0.000000
# num electro vdwattr vdwrepu polsolv apolsol rdesolv rhydroe totalscore fullpol fullapo
#   1   -0.23   -1.12    0.46   -0.65   -0.07    0.00    0.00      -1.61   -1.70   -0.19
#   2    0.07   -0.48    0.04   -0.47   -0.07    0.00    0.00      -0.91   -1.73   -0.25
#   3   -0.31   -0.52    0.06   -0.55   -0.06    0.00    0.00      -1.38   -2.08   -0.22
#   4   -0.01   -0.87    0.25   -0.74   -0.06    0.00    0.00      -1.44   -2.61   -0.22
#   5    1.43   -0.55    0.05   -1.02   -0.06    0.00    0.00      -0.14   -3.84   -0.21
#   6    0.42   -1.15    0.49   -0.10   -0.10    0.00    0.00      -0.44   -0.29   -0.28
#   7    9.24   -1.49    0.75   -4.07    0.15    0.00    0.00       4.58  -11.30    0.43
#   8  -14.75   -0.11    0.03    5.42    0.18    0.00    0.00      -9.22   16.46    0.56
#   9    0.22   -1.19    0.27   -0.02   -0.17    0.00    0.00      -0.90   -0.05   -0.39
#  10    2.01   -0.88    0.09   -1.68   -0.09    0.00    0.00      -0.55   -3.71   -0.21
#  11    1.04   -0.64    0.03   -0.91   -0.06    0.00    0.00      -0.54   -2.29   -0.16
#  12   -0.31   -1.25    0.23    0.68   -0.20    0.00    0.00      -0.85    1.52   -0.44
#  13   -0.83   -1.92    0.55   -1.43    0.40    0.00    0.00      -3.22   -3.16    0.89
#  14   -0.06   -1.66    0.38   -0.02   -0.42    0.00    0.00      -1.78   -0.05   -0.94
#  15   -0.11   -1.60    0.31   -0.35   -0.43    0.00    0.00      -2.18   -0.64   -0.79
#  16    0.64   -1.27    0.18    0.82   -0.10    0.00    0.00       0.28    1.34   -0.16
#  17   -2.45   -2.37    0.50   -3.61    1.06    0.00    0.00      -6.88   -5.74    1.68
#  18   -2.84   -1.90    0.44   -0.79    0.60    0.00    0.00      -4.48   -1.56    1.20
#  19   -0.97   -3.47    3.68   -0.45    0.23    0.00    0.00      -0.97   -0.95    0.49
#  20    1.48   -0.63    0.06   -1.14   -0.06    0.00    0.00      -0.30   -3.69   -0.21
#  21    0.05   -0.63    0.09    0.17   -0.12    0.00    0.00      -0.44    0.57   -0.42
#  22    0.03   -0.28    0.04    0.06   -0.10    0.00    0.00      -0.24    0.18   -0.28
#  23    0.18   -0.69    0.64    0.19   -0.12    0.00    0.00       0.20    0.45   -0.28
#  24    0.13   -0.41    0.30    0.12   -0.07    0.00    0.00       0.08    0.52   -0.28
#  25   -0.10   -0.15    0.01    0.10   -0.05    0.00    0.00      -0.19    0.61   -0.28
#  26   -0.14   -0.09    0.00    0.06   -0.02    0.00    0.00      -0.20    0.73   -0.28
#  27    0.16   -0.11    0.00    0.12   -0.03    0.00    0.00       0.15    1.09   -0.28
#  28    0.19   -0.30    0.19    0.20   -0.06    0.00    0.00       0.21    0.89   -0.28
#  29    0.14   -0.71    0.61    0.39   -0.08    0.00    0.00       0.34    1.31   -0.28
#  30   -0.29   -0.27    0.07    0.34   -0.06    0.00    0.00      -0.20    1.64   -0.28
#  31   -0.84   -0.14    0.01    0.47   -0.03    0.00    0.00      -0.53    3.08   -0.22
#  32   -0.59   -0.11    0.00    0.30   -0.03    0.00    0.00      -0.42    2.77   -0.28
#  33   -2.33   -0.70    1.06    1.32   -0.08    0.00    0.00      -0.73    4.79   -0.28
#  34   -3.47   -0.53    0.29    1.50   -0.05    0.00    0.00      -2.26    4.39   -0.15
#  35   -3.97   -0.70    0.65    2.22   -0.09    0.00    0.00      -1.88    5.45   -0.21
#  36   -3.37   -0.43    0.09    1.73   -0.11    0.00    0.00      -2.09    4.36   -0.28
#  37   -1.48   -0.54    0.26    1.33   -0.08    0.00    0.00      -0.51    3.78   -0.22
#  38   -1.29   -0.31    0.07    0.80   -0.09    0.00    0.00      -0.81    2.60   -0.28
#  39   -0.97   -0.20    0.03    0.23   -0.05    0.00    0.00      -0.97    1.25   -0.28
#  40   -0.23   -0.52    0.15    1.52   -0.11    0.00    0.00       0.81    4.00   -0.28
#  41   -0.29   -0.65    0.26    0.96   -0.13    0.00    0.00       0.15    2.01   -0.28
#  42    0.14   -0.29    0.04    1.06   -0.09    0.00    0.00       0.86    3.46   -0.28
#  43    0.27   -0.47    0.15    0.20   -0.14    0.00    0.00       0.01    0.40   -0.28
#  44    0.27   -0.46    0.10    0.34   -0.15    0.00    0.00       0.10    0.64   -0.28
#  45    0.81   -0.04    0.00    3.02    0.65    0.00    0.00       4.44    5.74    1.24
#  46   -0.79   -0.31    0.05    0.87   -0.05    0.00    0.00      -0.22    3.49   -0.21
#  47   -0.90   -0.22    0.05    0.06   -0.04    0.00    0.00      -1.05    0.38   -0.27
#  48   -2.29   -0.25    0.05    0.85   -0.06    0.00    0.00      -1.70    3.82   -0.28
#  49   -1.63   -0.13    0.01    0.57   -0.03    0.00    0.00      -1.21    4.89   -0.28
@<TRIPOS>MOLECULE
E32385041
   49    50     0     0     0
SMALL
USER_CHARGES


@<TRIPOS>ATOM
      1 C1         28.1294   25.0489   60.5224 C.3       1            -0.1577
      2 C2         26.7558   24.3749   60.5238 C.3       1            -0.1265
      3 C3         26.4147   23.9154   61.9427 C.3       1            -0.1216
      4 C4         25.0411   23.2414   61.9442 C.3       1            -0.1179
      5 C5         25.0657   22.0313   61.0084 C.3       1            -0.1477
      6 C6         23.6921   21.3574   61.0098 C.3       1            -0.0215
      7 N1         23.7157   20.1955   60.1113 N.4       1            -0.3812
      8 H1         23.9407   20.4995   59.1759 H         1             0.4282
      9 C7         22.3963   19.5522   60.1111 C.3       1            -0.0090
     10 C8         22.0156   19.1600   61.5402 C.3       1            -0.1413
     11 C9         23.0603   18.1856   62.0918 C.3       1            -0.1153
     12 C10        22.7294   17.8509   63.5477 C.3       1             0.1219
     13 N2         21.6717   16.8381   63.5876 N.pl3     1            -0.3025
     14 C11        21.8576   15.4979   63.6054 C.2       1            -0.0228
     15 C12        20.6221   14.9463   63.6418 C.2       1            -0.0204
     16 C13        20.2914   13.4764   63.6736 C.3       1             0.1613
     17 O1         21.5010   12.7156   63.6596 O.3       1            -0.5750
     18 N3         19.7523   15.9626   63.6444 N.2       1            -0.2508
     19 N4         20.4060   17.0701   63.6175 N.2       1            -0.0825
     20 C14        24.4431   18.8395   62.0184 C.3       1            -0.1462
     21 C15        24.7326   19.2428   60.5724 C.3       1            -0.0034
     22 H2         28.3724   25.3763   59.5115 H         1             0.0591
     23 H3         28.1118   25.9108   61.1893 H         1             0.0554
     24 H4         28.8825   24.3395   60.8654 H         1             0.0552
     25 H5         26.0026   25.0843   60.1808 H         1             0.0634
     26 H6         26.7735   23.5128   59.8570 H         1             0.0630
     27 H7         27.1678   23.2060   62.2858 H         1             0.0656
     28 H8         26.3971   24.7775   62.6096 H         1             0.0661
     29 H9         24.7982   22.9139   62.9551 H         1             0.0736
     30 H10        24.2880   23.9507   61.6013 H         1             0.0724
     31 H11        25.3087   22.3588   59.9975 H         1             0.0867
     32 H12        25.8188   21.3220   61.3513 H         1             0.0870
     33 H13        23.4492   21.0300   62.0208 H         1             0.1308
     34 H14        22.9390   22.0669   60.6669 H         1             0.1326
     35 H15        21.6544   20.2459   59.7153 H         1             0.1362
     36 H16        22.4278   18.6597   59.4860 H         1             0.1334
     37 H17        21.9835   20.0519   62.1661 H         1             0.0947
     38 H18        21.0365   18.6810   61.5377 H         1             0.1194
     39 H19        23.0560   17.2718   61.4977 H         1             0.1112
     40 H20        23.6204   17.4655   64.0434 H         1             0.1112
     41 H21        22.3898   18.7513   64.0594 H         1             0.1107
     42 H22        22.8018   14.9737   63.5928 H         1             0.1962
     43 H23        19.7300   13.2497   64.5800 H         1             0.0731
     44 H24        19.6909   13.2201   62.8007 H         1             0.0716
     45 H25        22.0521   12.8674   62.8797 H         1             0.3968
     46 H26        24.4614   19.7248   62.6540 H         1             0.0924
     47 H27        25.1991   18.1314   62.3574 H         1             0.1079
     48 H28        24.7143   18.3570   59.9375 H         1             0.1329
     49 H29        25.7169   19.7078   60.5174 H         1             0.1332
@<TRIPOS>BOND
     1    1    2 1 
     2    1   22 1 
     3    1   23 1 
     4    1   24 1 
     5    2    3 1 
     6    2   25 1 
     7    2   26 1 
     8    3    4 1 
     9    3   27 1 
    10    3   28 1 
    11    4    5 1 
    12    4   29 1 
    13    4   30 1 
    14    5    6 1 
    15    5   31 1 
    16    5   32 1 
    17    6    7 1 
    18    6   33 1 
    19    6   34 1 
    20    7    8 1 
    21    7   21 1 
    22    7    9 1 
    23    9   10 1 
    24    9   35 1 
    25    9   36 1 
    26   10   11 1 
    27   10   37 1 
    28   10   38 1 
    29   11   12 1 
    30   11   20 1 
    31   11   39 1 
    32   12   13 1 
    33   12   40 1 
    34   12   41 1 
    35   13   19 1 
    36   13   14 1 
    37   14   15 2 
    38   14   42 1 
    39   15   16 1 
    40   15   18 1 
    41   16   17 1 
    42   16   43 1 
    43   16   44 1 
    44   17   45 1 
    45   18   19 2 
    46   20   21 1 
    47   20   46 1 
    48   20   47 1 
    49   21   48 1 
    50   21   49 1 
##########                 Name:            E24832512
##########          Protonation:                   56
##########               SMILES:   c1cc(ccc1CN2CC[NH+](CC2)CCOCCO)F
##########            Long Name:   2-[2-[4-[(4-fluorophenyl)methyl]piperazin-1-ium-1-yl]ethoxy]ethanol
##########          FlexRecCode: 1
##########               Number:                  214
##########   Ligand Source File: /raidb/db2/rgc/leads-emolecules-300/2-leads-lt300-emolecules-1-0000087.db2.gz
##########           GlobalRank: 2399
##########                 Rank:                    1
##########               Setnum:                   26
##########             Matchnum:                 2017
##########                Cloud:                    1
##########        Electrostatic:           -24.163542
##########        Van der Waals:           -22.667566
##########  Ligand Polar Desolv:             6.931292
########## Ligand Apolar Desolv:            -1.316715
##########      Internal Energy:             0.000000
##########      Receptor Energy: 0.0
########## Receptor Desolvation:             0.000000
########## Receptor Hydrophobic:             0.000000
##########         Total Energy: -41.22
##########        Ligand Charge:             1.000000
##########            Arbitrary:    +999.9990
##########     heavy atom count:   20
##########           pose count:    1
##########        Ligand Energy:             0.000000
# num electro vdwattr vdwrepu polsolv apolsol rdesolv rhydroe totalscore fullpol fullapo
#   1    1.68   -0.87    0.08   -2.59    0.57    0.00    0.00      -1.13   -7.37    1.62
#   2   -0.32   -0.55    0.04    0.25   -0.04    0.00    0.00      -0.62    0.81   -0.14
#   3   -0.52   -1.15    0.43    0.38   -0.04    0.00    0.00      -0.91    1.12   -0.13
#   4    4.57   -1.57    0.70   -2.71    0.38    0.00    0.00       1.36   -8.35    1.16
#   5   -0.40   -0.63    0.07    0.10   -0.03    0.00    0.00      -0.89    0.35   -0.12
#   6    0.19   -0.68    0.15    0.06   -0.09    0.00    0.00      -0.37    0.22   -0.32
#   7   10.13   -1.93    1.69   -4.08    0.16    0.00    0.00       5.97  -10.83    0.43
#   8  -17.91   -0.17    0.07    5.50    0.20    0.00    0.00     -12.30   14.14    0.52
#   9    0.05   -1.21    0.27    0.20   -0.18    0.00    0.00      -0.86    0.48   -0.42
#  10   -0.36   -1.37    0.52    0.18   -0.16    0.00    0.00      -1.19    0.42   -0.39
#  11    4.91   -1.10    0.07   -5.45    1.35    0.00    0.00      -0.20  -12.91    3.21
#  12   -0.25   -1.20    0.22    0.93   -0.18    0.00    0.00      -0.49    2.06   -0.39
#  13   -0.13   -1.61    0.32   -0.47   -0.15    0.00    0.00      -2.04   -1.09   -0.34
#  14   -0.42   -1.88    0.56   -0.44   -0.21    0.00    0.00      -2.39   -0.96   -0.45
#  15   -0.86   -1.59    0.27   -0.89   -0.26    0.00    0.00      -3.32   -1.58   -0.47
#  16    0.36   -1.92    0.49   -0.05   -0.20    0.00    0.00      -1.32   -0.08   -0.34
#  17   -0.53   -1.50    0.25   -0.37   -0.31    0.00    0.00      -2.46   -0.57   -0.48
#  18   -0.06   -1.97    0.58   -0.88   -0.24    0.00    0.00      -2.56   -1.76   -0.47
#  19    0.05   -1.54    0.30   -0.45   -0.16    0.00    0.00      -1.80   -1.05   -0.37
#  20   -0.21   -0.58    0.04    0.05   -0.12    0.00    0.00      -0.83    0.14   -0.37
#  21    0.14   -1.21    0.37    0.10   -0.16    0.00    0.00      -0.75    0.27   -0.41
#  22   -1.14   -0.01    0.00    1.09    0.23    0.00    0.00       0.16    5.87    1.24
#  23   -0.14   -0.12    0.00    0.16   -0.03    0.00    0.00      -0.14    1.29   -0.28
#  24   -0.27   -0.23    0.06    0.18   -0.06    0.00    0.00      -0.32    0.89   -0.28
#  25   -1.23   -0.44    0.23    0.61   -0.07    0.00    0.00      -0.90    2.28   -0.28
#  26   -0.43   -0.75    0.89    0.13   -0.09    0.00    0.00      -0.25    0.41   -0.28
#  27   -0.45   -0.10    0.00    0.29   -0.02    0.00    0.00      -0.28    2.98   -0.23
#  28   -1.61   -0.31    0.12    0.36   -0.07    0.00    0.00      -1.52    1.52   -0.28
#  29   -2.13   -0.21    0.06    0.73   -0.02    0.00    0.00      -1.58    4.85   -0.15
#  30   -1.63   -0.14    0.01    0.64   -0.04    0.00    0.00      -1.16    4.37   -0.28
#  31   -3.87   -0.55    0.26    1.99   -0.10    0.00    0.00      -2.28    5.32   -0.28
#  32   -3.49   -0.40    0.11    1.57   -0.10    0.00    0.00      -2.32    4.22   -0.28
#  33   -0.80   -0.49    0.22    0.69   -0.06    0.00    0.00      -0.44    2.35   -0.21
#  34   -1.75   -1.00    1.04    1.09   -0.12    0.00    0.00      -0.74    2.58   -0.28
#  35   -0.20   -0.47    0.11    0.63   -0.11    0.00    0.00      -0.04    1.67   -0.28
#  36   -0.05   -0.75    0.67    0.88   -0.13    0.00    0.00       0.63    1.87   -0.27
#  37    2.04   -0.64    0.54    0.87   -0.10    0.00    0.00       2.70    2.37   -0.28
#  38    1.03   -0.29    0.02    0.30   -0.10    0.00    0.00       0.97    0.85   -0.28
#  39   -0.35   -0.53    0.23    0.58   -0.12    0.00    0.00      -0.18    1.38   -0.28
#  40   -0.31   -0.25    0.03    0.89   -0.07    0.00    0.00       0.29    3.58   -0.28
#  41   -0.59   -0.14    0.01    0.31   -0.03    0.00    0.00      -0.44    2.53   -0.22
#  42   -1.03   -0.21    0.04    0.36   -0.04    0.00    0.00      -0.89    1.82   -0.21
#  43   -3.16   -0.52    0.21    1.68   -0.12    0.00    0.00      -1.91    4.00   -0.28
#  44   -2.70   -0.50    0.24    1.54   -0.08    0.00    0.00      -1.49    4.70   -0.23
@<TRIPOS>MOLECULE
E24832512
   44    45     0     0     0
SMALL
USER_CHARGES


@<TRIPOS>ATOM
      1 O1         26.4844   24.4279   58.3659 O.3       1            -0.5701
      2 C1         25.4171   24.6529   59.2890 C.3       1             0.0742
      3 C2         24.2728   23.6816   58.9923 C.3       1             0.0647
      4 O2         24.7419   22.3382   59.1247 O.3       1            -0.3915
      5 C3         24.8100   21.8768   60.4754 C.3       1             0.0302
      6 C4         24.8289   20.3470   60.4913 C.3       1            -0.0114
      7 N1         23.6049   19.8356   59.8604 N.4       1            -0.3821
      8 H1         23.5568   20.1614   58.9067 H         1             0.4351
      9 C5         22.4331   20.3192   60.6024 C.3       1            -0.0019
     10 C6         22.5148   19.8404   62.0536 C.3       1             0.0241
     11 N2         22.5610   18.3717   62.0801 N.3       1            -0.5326
     12 C7         22.5828   17.8706   63.4608 C.3       1             0.0989
     13 C8         22.1419   16.4296   63.4791 C.ar      1            -0.1090
     14 C9         20.8030   16.1188   63.6266 C.ar      1            -0.0633
     15 C10        20.3975   14.7977   63.6436 C.ar      1            -0.1513
     16 C11        21.3328   13.7853   63.5124 C.ar      1             0.1121
     17 F1         20.9375   12.4935   63.5284 F         1            -0.1327
     18 C12        22.6735   14.0978   63.3643 C.ar      1            -0.1532
     19 C13        23.0761   15.4197   63.3428 C.ar      1            -0.0888
     20 C14        23.7154   17.8719   61.3200 C.3       1             0.0189
     21 C15        23.6236   18.3669   59.8752 C.3       1            -0.0068
     22 H2         26.8525   23.5345   58.4003 H         1             0.3892
     23 H3         25.7760   24.4919   60.3056 H         1             0.0556
     24 H4         25.0593   25.6775   59.1882 H         1             0.0714
     25 H5         23.4587   23.8533   59.6964 H         1             0.0731
     26 H6         23.9139   23.8426   57.9758 H         1             0.0697
     27 H7         25.7183   22.2563   60.9436 H         1             0.0731
     28 H8         23.9403   22.2352   61.0261 H         1             0.0968
     29 H9         25.6986   19.9885   59.9408 H         1             0.1396
     30 H10        24.8808   19.9951   61.5217 H         1             0.1414
     31 H11        22.4131   21.4088   60.5798 H         1             0.1375
     32 H12        21.5252   19.9295   60.1419 H         1             0.1403
     33 H13        23.4155   20.2411   62.5185 H         1             0.0616
     34 H14        21.6379   20.1867   62.6007 H         1             0.1251
     35 H15        23.5948   17.9460   63.8587 H         1             0.0573
     36 H16        21.9060   18.4655   64.0740 H         1             0.1001
     37 H17        20.0736   16.9087   63.7290 H         1             0.1356
     38 H18        19.3514   14.5552   63.7596 H         1             0.1409
     39 H19        23.4040   13.3089   63.2621 H         1             0.1393
     40 H20        24.1213   15.6638   63.2230 H         1             0.1282
     41 H21        24.6360   18.2402   61.7729 H         1             0.0607
     42 H22        23.7145   16.7821   61.3319 H         1             0.1257
     43 H23        22.7097   17.9874   59.4184 H         1             0.1409
     44 H24        24.4864   18.0089   59.3134 H         1             0.1330
@<TRIPOS>BOND
     1    1    2 1 
     2    1   22 1 
     3    2    3 1 
     4    2   23 1 
     5    2   24 1 
     6    3    4 1 
     7    3   25 1 
     8    3   26 1 
     9    4    5 1 
    10    5    6 1 
    11    5   27 1 
    12    5   28 1 
    13    6    7 1 
    14    6   29 1 
    15    6   30 1 
    16    7    8 1 
    17    7   21 1 
    18    7    9 1 
    19    9   10 1 
    20    9   31 1 
    21    9   32 1 
    22   10   11 1 
    23   10   33 1 
    24   10   34 1 
    25   11   12 1 
    26   11   20 1 
    27   12   13 1 
    28   12   35 1 
    29   12   36 1 
    30   13   19 ar
    31   13   14 ar
    32   14   15 ar
    33   14   37 1 
    34   15   16 ar
    35   15   38 1 
    36   16   17 1 
    37   16   18 ar
    38   18   19 ar
    39   18   39 1 
    40   19   40 1 
    41   20   21 1 
    42   20   41 1 
    43   20   42 1 
    44   21   43 1 
    45   21   44 1 
##########                 Name:            E23829330
##########          Protonation:                   79
##########               SMILES:   Cc1nc(ccc1)C[NH+]2CC[C@@H](CC2)Cc3ccc(cc3)F
##########            Long Name:   2-[[4-[(4-fluorophenyl)methyl]piperidin-1-ium-1-yl]methyl]-6-methyl-pyridine
##########          FlexRecCode: 1
##########               Number:                  520
##########   Ligand Source File: /raidb/db2/rgc/leads-emolecules-300/leads-emolecules-lt300-2j-0000002.db2.gz
##########           GlobalRank: 2399
##########                 Rank:                    1
##########               Setnum:                   51
##########             Matchnum:                 2017
##########                Cloud:                    1
##########        Electrostatic:           -22.056255
##########        Van der Waals:           -23.423573
##########  Ligand Polar Desolv:             8.300406
########## Ligand Apolar Desolv:            -4.041011
##########      Internal Energy:             0.000000
##########      Receptor Energy: 0.0
########## Receptor Desolvation:             0.000000
########## Receptor Hydrophobic:             0.000000
##########         Total Energy: -41.22
##########        Ligand Charge:             1.000000
##########            Arbitrary:    +999.9990
##########     heavy atom count:   22
##########           pose count:    1
##########        Ligand Energy:             0.000000
# num electro vdwattr vdwrepu polsolv apolsol rdesolv rhydroe totalscore fullpol fullapo
#   1   -0.32   -1.31    0.49   -0.49   -0.07    0.00    0.00      -1.70   -1.45   -0.20
#   2    0.33   -1.22    0.25    0.36   -0.22    0.00    0.00      -0.50    1.22   -0.75
#   3    0.38   -0.86    0.08   -0.83   -0.13    0.00    0.00      -1.37   -2.81   -0.45
#   4    0.46   -0.89    0.08   -0.49   -0.14    0.00    0.00      -0.98   -1.63   -0.48
#   5    1.78   -1.18    0.21   -0.95   -0.11    0.00    0.00      -0.25   -3.16   -0.38
#   6   -0.70   -0.87    0.09    0.53   -0.16    0.00    0.00      -1.11    1.96   -0.60
#   7   -0.69   -0.57    0.07    0.44   -0.08    0.00    0.00      -0.83    1.60   -0.31
#   8    9.52   -1.74    1.39   -3.88    0.15    0.00    0.00       5.43  -10.85    0.43
#   9  -16.48   -0.16    0.07    4.92    0.20    0.00    0.00     -11.44   14.00    0.56
#  10    0.28   -1.22    0.29   -0.05   -0.16    0.00    0.00      -0.86   -0.13   -0.38
#  11    2.26   -1.46    0.68   -1.67   -0.08    0.00    0.00      -0.27   -3.99   -0.20
#  12    0.90   -0.71    0.04   -0.88   -0.06    0.00    0.00      -0.71   -2.08   -0.15
#  13    0.19   -1.20    0.22   -0.79   -0.09    0.00    0.00      -1.68   -1.75   -0.20
#  14   -0.12   -1.61    0.32   -0.47   -0.14    0.00    0.00      -2.03   -1.07   -0.33
#  15   -0.56   -1.88    0.56   -0.60   -0.21    0.00    0.00      -2.69   -1.30   -0.46
#  16   -0.84   -1.59    0.27   -0.91   -0.26    0.00    0.00      -3.33   -1.62   -0.47
#  17    0.33   -1.92    0.49   -0.09   -0.20    0.00    0.00      -1.39   -0.16   -0.34
#  18   -0.53   -1.50    0.25   -0.34   -0.31    0.00    0.00      -2.44   -0.53   -0.48
#  19   -0.06   -1.97    0.58   -0.90   -0.24    0.00    0.00      -2.58   -1.79   -0.47
#  20    0.05   -1.54    0.30   -0.50   -0.16    0.00    0.00      -1.86   -1.17   -0.38
#  21    1.71   -0.57    0.04   -1.47   -0.06    0.00    0.00      -0.37   -4.44   -0.19
#  22    0.12   -1.19    0.41    0.14   -0.16    0.00    0.00      -0.68    0.37   -0.42
#  23    1.56   -1.28    0.32   -2.31    0.49    0.00    0.00      -1.22   -8.65    1.84
#  24    0.26   -0.57    0.87    0.33   -0.09    0.00    0.00       0.80    1.09   -0.28
#  25    0.26   -1.34    2.50    0.31   -0.10    0.00    0.00       1.64    0.87   -0.28
#  26    0.25   -0.24    0.04    0.19   -0.07    0.00    0.00       0.16    0.76   -0.28
#  27   -0.14   -0.22    0.05    0.37   -0.06    0.00    0.00       0.00    1.73   -0.28
#  28   -0.86   -0.20    0.02    0.53   -0.05    0.00    0.00      -0.56    2.81   -0.28
#  29   -1.61   -0.58    0.55    1.63   -0.07    0.00    0.00      -0.08    5.33   -0.22
#  30   -1.77   -0.14    0.02    0.57   -0.03    0.00    0.00      -1.36    4.71   -0.28
#  31   -1.55   -0.16    0.01    0.93   -0.02    0.00    0.00      -0.79    5.73   -0.15
#  32   -3.52   -0.55    0.27    1.25   -0.08    0.00    0.00      -2.63    3.39   -0.21
#  33   -3.49   -0.45    0.17    1.82   -0.10    0.00    0.00      -2.06    4.87   -0.28
#  34   -1.17   -0.57    0.35    1.02   -0.05    0.00    0.00      -0.42    3.30   -0.15
#  35   -1.70   -1.02    1.13    1.20   -0.12    0.00    0.00      -0.50    2.85   -0.28
#  36   -0.88   -0.22    0.02    0.55   -0.07    0.00    0.00      -0.60    2.12   -0.28
#  37   -0.28   -0.47    0.11    0.98   -0.11    0.00    0.00       0.23    2.59   -0.28
#  38   -0.04   -0.75    0.67    0.84   -0.13    0.00    0.00       0.59    1.78   -0.28
#  39    2.00   -0.64    0.54    0.97   -0.10    0.00    0.00       2.77    2.64   -0.28
#  40    1.01   -0.29    0.02    0.29   -0.10    0.00    0.00       0.95    0.82   -0.28
#  41   -0.34   -0.53    0.23    0.55   -0.12    0.00    0.00      -0.21    1.30   -0.28
#  42   -0.32   -0.25    0.03    0.97   -0.07    0.00    0.00       0.36    3.89   -0.28
#  43   -0.86   -0.14    0.01    0.43   -0.03    0.00    0.00      -0.59    3.51   -0.22
#  44   -1.00   -0.21    0.03    0.36   -0.04    0.00    0.00      -0.85    1.85   -0.22
#  45   -3.18   -0.52    0.18    1.92   -0.12    0.00    0.00      -1.71    4.65   -0.28
#  46   -2.66   -0.46    0.22    1.50   -0.09    0.00    0.00      -1.48    4.93   -0.28
@<TRIPOS>MOLECULE
E23829330
   46    48     0     0     0
SMALL
USER_CHARGES


@<TRIPOS>ATOM
      1 C1         25.4280   24.4917   63.4472 C.3       1            -0.1148
      2 C2         25.1717   23.8621   62.1021 C.ar      1             0.1450
      3 C3         24.9379   24.6683   61.0039 C.ar      1            -0.1390
      4 C4         24.7032   24.0790   59.7713 C.ar      1            -0.0629
      5 C5         24.7123   22.6948   59.6889 C.ar      1            -0.1566
      6 C6         24.9534   21.9539   60.8301 C.ar      1             0.0636
      7 C7         24.9658   20.4490   60.7523 C.3       1             0.0473
      8 N1         23.8174   19.9901   59.9591 N.4       1            -0.3774
      9 H1         23.8770   20.3760   59.0288 H         1             0.4293
     10 C8         22.5739   20.4407   60.5955 C.3       1            -0.0115
     11 C9         22.5163   19.9233   62.0344 C.3       1            -0.1458
     12 C10        22.5601   18.3925   62.0228 C.3       1            -0.0944
     13 C11        22.5830   17.8705   63.4608 C.3       1            -0.0730
     14 C12        22.1420   16.4296   63.4791 C.ar      1            -0.1067
     15 C13        20.8030   16.1188   63.6268 C.ar      1            -0.0846
     16 C14        20.3975   14.7979   63.6437 C.ar      1            -0.1488
     17 C15        21.3328   13.7853   63.5123 C.ar      1             0.1049
     18 F1         20.9374   12.4935   63.5283 F         1            -0.1339
     19 C16        22.6735   14.0978   63.3641 C.ar      1            -0.1509
     20 C17        23.0761   15.4196   63.3425 C.ar      1            -0.0908
     21 C18        23.8248   17.9335   61.2912 C.3       1            -0.1501
     22 C19        23.8329   18.5244   59.8813 C.3       1            -0.0058
     23 N2         25.1783   22.5487   61.9855 N.ar      1            -0.4705
     24 H2         25.3844   25.5769   63.3545 H         1             0.0873
     25 H3         24.6701   24.1568   64.1555 H         1             0.0856
     26 H4         26.4147   24.1968   63.8043 H         1             0.0840
     27 H5         24.9378   25.7435   61.1049 H         1             0.1499
     28 H6         24.5171   24.6836   58.8958 H         1             0.1497
     29 H7         24.5329   22.2020   58.7448 H         1             0.1430
     30 H8         25.8900   20.1172   60.2792 H         1             0.1447
     31 H9         24.9025   20.0327   61.7576 H         1             0.1465
     32 H10        22.5426   21.5302   60.6001 H         1             0.1261
     33 H11        21.7205   20.0559   60.0370 H         1             0.1327
     34 H12        23.3691   20.3076   62.5938 H         1             0.0890
     35 H13        21.5913   20.2574   62.5045 H         1             0.1150
     36 H14        21.6797   18.0065   61.5088 H         1             0.0944
     37 H15        23.5949   17.9459   63.8587 H         1             0.0802
     38 H16        21.9061   18.4654   64.0741 H         1             0.0862
     39 H17        20.0737   16.9087   63.7292 H         1             0.1331
     40 H18        19.3515   14.5552   63.7597 H         1             0.1392
     41 H19        23.4039   13.3088   63.2619 H         1             0.1385
     42 H20        24.1213   15.6637   63.2229 H         1             0.1308
     43 H21        24.7047   18.2765   61.8353 H         1             0.0900
     44 H22        23.8351   16.8453   61.2301 H         1             0.1163
     45 H23        22.9526   18.1807   59.3381 H         1             0.1324
     46 H24        24.7319   18.1983   59.3583 H         1             0.1330
@<TRIPOS>BOND
     1    1    2 1 
     2    1   24 1 
     3    1   25 1 
     4    1   26 1 
     5    2   23 ar
     6    2    3 ar
     7    3    4 ar
     8    3   27 1 
     9    4    5 ar
    10    4   28 1 
    11    5    6 ar
    12    5   29 1 
    13    6    7 1 
    14    6   23 ar
    15    7    8 1 
    16    7   30 1 
    17    7   31 1 
    18    8    9 1 
    19    8   22 1 
    20    8   10 1 
    21   10   11 1 
    22   10   32 1 
    23   10   33 1 
    24   11   12 1 
    25   11   34 1 
    26   11   35 1 
    27   12   13 1 
    28   12   21 1 
    29   12   36 1 
    30   13   14 1 
    31   13   37 1 
    32   13   38 1 
    33   14   20 ar
    34   14   15 ar
    35   15   16 ar
    36   15   39 1 
    37   16   17 ar
    38   16   40 1 
    39   17   18 1 
    40   17   19 ar
    41   19   20 ar
    42   19   41 1 
    43   20   42 1 
    44   21   22 1 
    45   21   43 1 
    46   21   44 1 
    47   22   45 1 
    48   22   46 1 
##########                 Name:             E4933370
##########          Protonation:                   90
##########               SMILES:   CC[NH+]1CCC[C@H]1CNc2c(c(ncn2)N)[N+](=O)[O-]
##########            Long Name:   4-[[(2S)-1-ethylpyrrolidin-1-ium-2-yl]methyl]-5-nitro-pyrimidine-4,6-diamine
##########          FlexRecCode: 1
##########               Number:                   10
##########   Ligand Source File: /raidb/db2/rgc/leads-emolecules-300/leads-lt300-emolecules-1d-0000182.db2.gz
##########           GlobalRank: 2399
##########                 Rank:                    1
##########               Setnum:                   37
##########             Matchnum:                 4328
##########                Cloud:                    1
##########        Electrostatic:           -20.548965
##########        Van der Waals:           -23.825190
##########  Ligand Polar Desolv:             5.471315
########## Ligand Apolar Desolv:            -2.313362
##########      Internal Energy:             0.000000
##########      Receptor Energy: 0.0
########## Receptor Desolvation:             0.000000
########## Receptor Hydrophobic:             0.000000
##########         Total Energy: -41.22
##########        Ligand Charge:             1.000000
##########            Arbitrary:    +999.9990
##########     heavy atom count:   19
##########           pose count:    1
##########        Ligand Energy:             0.000000
# num electro vdwattr vdwrepu polsolv apolsol rdesolv rhydroe totalscore fullpol fullapo
#   1    4.17   -1.57    0.45   -2.51   -0.10    0.00    0.00       0.44   -4.83   -0.20
#   2    0.20   -0.86    0.07    0.02   -0.17    0.00    0.00      -0.73    0.05   -0.36
#   3    6.01   -0.85    0.06   -4.30    0.10    0.00    0.00       1.01  -11.05    0.25
#   4   -5.82   -0.03    0.00    3.20    0.12    0.00    0.00      -2.52   12.31    0.46
#   5    0.24   -0.97    0.32    0.00   -0.14    0.00    0.00      -0.56   -0.01   -0.40
#   6    2.56   -0.97    0.42   -1.13   -0.08    0.00    0.00       0.79   -3.92   -0.29
#   7    1.27   -0.46    0.03   -0.85   -0.07    0.00    0.00      -0.07   -3.32   -0.26
#   8   -0.08   -0.56    0.03    0.42   -0.09    0.00    0.00      -0.28    1.24   -0.26
#   9   -0.59   -1.23    0.31    0.92   -0.15    0.00    0.00      -0.74    2.33   -0.38
#  10    0.43   -1.84    0.36   -6.21    0.69    0.00    0.00      -6.58  -13.87    1.53
#  11    0.68   -1.69    0.36    3.24   -0.89    0.00    0.00       1.70    7.42   -2.05
#  12   -1.17   -1.63    0.38   -1.71   -0.31    0.00    0.00      -4.44   -3.53   -0.64
#  13    1.88   -1.83    0.42    2.63   -1.26    0.00    0.00       1.85    4.46   -2.13
#  14   -3.03   -2.19    0.39   -5.07    0.57    0.00    0.00      -9.33   -8.13    0.92
#  15   -1.58   -2.55    0.59   -3.52    1.22    0.00    0.00      -5.84   -6.01    2.08
#  16   -0.11   -2.50    1.07    2.54   -1.60    0.00    0.00      -0.60    5.03   -3.17
#  17    0.03   -1.96    0.58   -3.57    0.86    0.00    0.00      -4.06   -8.01    1.94
#  18    0.34   -1.92    0.50    0.31    0.13    0.00    0.00      -0.64    0.64    0.27
#  19   -1.14   -2.19    0.83   -0.86   -0.32    0.00    0.00      -3.69   -1.76   -0.66
#  20   -2.32   -2.94    2.23   -0.70   -0.35    0.00    0.00      -4.08   -1.34   -0.66
#  21   -1.56   -0.44    0.08    0.72   -0.14    0.00    0.00      -1.34    1.43   -0.28
#  22   -1.69   -0.89    0.91    1.13   -0.11    0.00    0.00      -0.66    2.47   -0.25
#  23   -3.40   -0.91    1.19    0.61   -0.12    0.00    0.00      -2.63    1.47   -0.28
#  24   -1.01   -0.29    0.06    0.94   -0.07    0.00    0.00      -0.38    3.37   -0.25
#  25   -2.43   -0.29    0.03    1.77   -0.09    0.00    0.00      -1.01    5.10   -0.27
#  26   -4.30   -0.67    0.65    1.71   -0.09    0.00    0.00      -2.70    4.81   -0.26
#  27   -2.60   -0.21    0.02    0.95   -0.06    0.00    0.00      -1.90    4.40   -0.28
#  28   -2.56   -0.55    0.37    0.77   -0.09    0.00    0.00      -2.06    2.48   -0.28
#  29   -1.54   -0.26    0.11    0.38   -0.05    0.00    0.00      -1.36    2.24   -0.28
#  30   -0.79   -0.11    0.00    0.32   -0.03    0.00    0.00      -0.60    3.10   -0.28
#  31   -0.93   -0.17    0.03    0.35   -0.04    0.00    0.00      -0.75    2.52   -0.27
#  32   -1.44   -0.20    0.02    0.99   -0.05    0.00    0.00      -0.67    5.24   -0.26
#  33   -0.65   -0.56    0.37    0.68   -0.08    0.00    0.00      -0.24    2.36   -0.28
#  34   -0.54   -0.69    0.31    1.13   -0.11    0.00    0.00       0.11    2.82   -0.28
#  35    0.57   -0.04    0.00    3.60    0.16    0.00    0.00       4.30    9.02    0.41
#  36    2.38   -0.03    0.00    1.97    0.25    0.00    0.00       4.57    4.31    0.55
#  37    0.61   -0.05    0.00    2.81    0.36    0.00    0.00       3.73    4.65    0.59
#  38   -0.64   -0.63    0.33    1.79   -0.12    0.00    0.00       0.74    4.30   -0.28
@<TRIPOS>MOLECULE
E4933370
   38    39     0     0     0
SMALL
USER_CHARGES


@<TRIPOS>ATOM
      1 C1         21.0500   20.2529   60.7007 C.3       1            -0.1889
      2 C2         21.7944   18.9729   61.0856 C.3       1            -0.0129
      3 N1         23.1842   19.2998   61.4314 N.4       1            -0.3974
      4 H1         23.2004   19.9421   62.2093 H         1             0.4211
      5 C3         23.8509   19.9004   60.2812 C.3       1            -0.0109
      6 C4         25.0687   19.0255   59.9673 C.3       1            -0.1431
      7 C5         25.3507   18.3758   61.3392 C.3       1            -0.1302
      8 C6         23.9081   18.0766   61.7835 C.3       1             0.0080
      9 C7         23.8512   17.8313   63.2926 C.3       1             0.1101
     10 N2         22.5613   17.2309   63.6416 N.pl3     1            -0.7317
     11 C8         22.4171   15.8522   63.6464 C.ar      1             0.5175
     12 C9         21.1544   15.2741   63.5562 C.ar      1            -0.2782
     13 C10        21.0631   13.8858   63.5653 C.ar      1             0.5238
     14 N3         19.8284   13.2616   63.4774 N.pl3     1            -0.8109
     15 N4         22.1794   13.1652   63.6591 N.ar      1            -0.5775
     16 C11        23.3567   13.7503   63.7427 C.ar      1             0.4209
     17 N5         23.4852   15.0615   63.7318 N.ar      1            -0.5880
     18 N6         19.9401   16.1143   63.4540 N.pl3     1             0.0315
     19 O1         19.5240   16.4457   62.3683 O.2       1            -0.1303
     20 O2         19.3642   16.4690   64.4561 O.3       1            -0.1389
     21 H2         20.0187   20.0104   60.4441 H         1             0.0820
     22 H3         21.0617   20.9468   61.5413 H         1             0.0827
     23 H4         21.5393   20.7137   59.8425 H         1             0.1104
     24 H5         21.3052   18.5122   61.9438 H         1             0.1215
     25 H6         21.7827   18.2791   60.2450 H         1             0.1362
     26 H7         23.1749   19.9195   59.4262 H         1             0.1368
     27 H8         24.1718   20.9136   60.5233 H         1             0.1363
     28 H9         24.8242   18.2700   59.2206 H         1             0.1225
     29 H10        25.9131   19.6342   59.6430 H         1             0.1004
     30 H11        25.9305   17.4590   61.2322 H         1             0.1091
     31 H12        25.8390   19.0762   62.0169 H         1             0.1202
     32 H13        23.5067   17.2219   61.2389 H         1             0.1484
     33 H14        24.6564   17.1559   63.5816 H         1             0.1225
     34 H15        23.9653   18.7788   63.8192 H         1             0.1042
     35 H16        21.8081   17.7981   63.8694 H         1             0.4040
     36 H17        19.0200   13.7931   63.4089 H         1             0.4170
     37 H18        19.7730   12.2932   63.4842 H         1             0.4281
     38 H19        24.2427   13.1372   63.8176 H         1             0.2238
@<TRIPOS>BOND
     1    1    2 1 
     2    1   21 1 
     3    1   22 1 
     4    1   23 1 
     5    2    3 1 
     6    2   24 1 
     7    2   25 1 
     8    3    4 1 
     9    3    8 1 
    10    3    5 1 
    11    5    6 1 
    12    5   26 1 
    13    5   27 1 
    14    6    7 1 
    15    6   28 1 
    16    6   29 1 
    17    7    8 1 
    18    7   30 1 
    19    7   31 1 
    20    8    9 1 
    21    8   32 1 
    22    9   10 1 
    23    9   33 1 
    24    9   34 1 
    25   10   11 1 
    26   10   35 1 
    27   11   17 ar
    28   11   12 ar
    29   12   13 ar
    30   12   18 1 
    31   13   14 1 
    32   13   15 ar
    33   14   36 1 
    34   14   37 1 
    35   15   16 ar
    36   16   17 ar
    37   16   38 1 
    38   18   19 2 
    39   18   20 1 
##########                 Name:            E25963402
##########          Protonation:                   32
##########               SMILES:   [H]/N=C(/c1cccc(c1)C)\NOC(=O)c2ccc(cc2C)C
##########            Long Name:   [(3-methylbenzenecarboximidoyl)amino]
##########          FlexRecCode: 1
##########               Number:                  359
##########   Ligand Source File: /raidb/db2/rgc/leads-emolecules-300/2-leads-lt300-emolecules-1-0000055.db2.gz
##########           GlobalRank: 2415
##########                 Rank:                    1
##########               Setnum:                  152
##########             Matchnum:                 5891
##########                Cloud:                    1
##########        Electrostatic:            -8.007099
##########        Van der Waals:           -32.062279
##########  Ligand Polar Desolv:             3.818583
########## Ligand Apolar Desolv:            -4.956048
##########      Internal Energy:             0.000000
##########      Receptor Energy: 0.0
########## Receptor Desolvation:             0.000000
########## Receptor Hydrophobic:             0.000000
##########         Total Energy: -41.21
##########        Ligand Charge:             0.000000
##########            Arbitrary:    +999.9990
##########     heavy atom count:   21
##########           pose count:    1
##########        Ligand Energy:             0.000000
# num electro vdwattr vdwrepu polsolv apolsol rdesolv rhydroe totalscore fullpol fullapo
#   1   -1.27   -1.75    0.57   -0.09   -0.12    0.00    0.00      -2.68   -0.15   -0.20
#   2   -1.15   -2.64    1.25    0.05   -0.25    0.00    0.00      -2.74    0.08   -0.40
#   3   -0.83   -2.87    0.83   -0.06   -0.29    0.00    0.00      -3.22   -0.09   -0.45
#   4   -0.42   -3.65    1.14   -0.07   -0.32    0.00    0.00      -3.32   -0.11   -0.47
#   5   -0.72   -2.78    0.56    0.07   -0.28    0.00    0.00      -3.15    0.11   -0.44
#   6   -0.59   -2.09    0.38    0.18   -0.26    0.00    0.00      -2.38    0.28   -0.41
#   7   -0.87   -2.56    0.78    0.17   -0.26    0.00    0.00      -2.74    0.28   -0.43
#   8    5.55   -1.81    0.29   -1.37   -1.25    0.00    0.00       1.40   -2.42   -2.20
#   9  -12.95   -2.83    2.33    2.62    0.69    0.00    0.00     -10.14    4.98    1.31
#  10   -4.14   -1.88    0.40    1.53    0.37    0.00    0.00      -3.72    2.65    0.64
#  11   -0.59   -1.71    0.55    0.30   -0.29    0.00    0.00      -1.74    0.59   -0.56
#  12    1.36   -2.04    0.52   -1.27   -0.09    0.00    0.00      -1.53   -2.34   -0.17
#  13   -2.06   -2.38    0.42    1.87   -0.19    0.00    0.00      -2.34    3.01   -0.30
#  14    0.07   -2.14    0.79    0.26   -0.20    0.00    0.00      -1.22    0.54   -0.41
#  15    0.14   -3.40    2.46    0.03   -0.22    0.00    0.00      -0.99    0.07   -0.46
#  16    0.38   -2.16    0.85   -0.05   -0.19    0.00    0.00      -1.17   -0.13   -0.45
#  17    0.10   -1.31    0.24   -0.02   -0.14    0.00    0.00      -1.13   -0.05   -0.41
#  18    0.21   -0.49    0.04   -0.12   -0.05    0.00    0.00      -0.41   -0.51   -0.20
#  19    0.54   -1.38    0.29   -0.02   -0.15    0.00    0.00      -0.72   -0.07   -0.44
#  20    0.01   -1.47    0.27    0.02   -0.16    0.00    0.00      -1.34    0.05   -0.41
#  21    0.30   -0.82    0.09    0.08   -0.07    0.00    0.00      -0.42    0.20   -0.18
#  22    0.75   -0.37    0.05    0.07   -0.14    0.00    0.00       0.37    0.14   -0.28
#  23    0.72   -0.97    0.99    0.15   -0.15    0.00    0.00       0.73    0.27   -0.28
#  24    0.76   -0.69    0.47    0.02   -0.14    0.00    0.00       0.43    0.05   -0.28
#  25    0.93   -0.57    0.12    0.33   -0.15    0.00    0.00       0.66    0.62   -0.28
#  26   -0.35   -1.16    0.59    0.43   -0.18    0.00    0.00      -0.68    0.65   -0.28
#  27    0.66   -0.78    0.44    0.05   -0.13    0.00    0.00       0.24    0.09   -0.22
#  28    2.04   -0.57    0.12   -0.30   -0.15    0.00    0.00       1.15   -0.56   -0.27
#  29    3.58   -0.03    0.00   -0.77    0.20    0.00    0.00       2.98   -2.06    0.53
#  30    2.00   -0.03    0.00   -0.59    0.17    0.00    0.00       1.54   -1.33    0.37
#  31   -0.20   -1.24    2.09   -0.02   -0.14    0.00    0.00       0.50   -0.04   -0.27
#  32   -0.26   -0.35    0.08    0.20   -0.10    0.00    0.00      -0.43    0.59   -0.28
#  33   -0.19   -0.12    0.01    0.05   -0.03    0.00    0.00      -0.28    0.44   -0.28
#  34   -0.04   -0.17    0.02    0.07   -0.05    0.00    0.00      -0.16    0.42   -0.28
#  35   -0.07   -0.11    0.00    0.05   -0.03    0.00    0.00      -0.16    0.43   -0.28
#  36   -0.84   -0.24    0.06    0.09   -0.05    0.00    0.00      -0.98    0.50   -0.28
#  37   -0.48   -0.18    0.01   -0.03   -0.06    0.00    0.00      -0.74   -0.15   -0.28
#  38   -0.18   -0.33    0.21    0.02   -0.07    0.00    0.00      -0.35    0.08   -0.28
#  39    0.13   -0.36    0.07   -0.09   -0.07    0.00    0.00      -0.31   -0.25   -0.20
@<TRIPOS>MOLECULE
E25963402
   39    40     0     0     0
SMALL
USER_CHARGES


@<TRIPOS>ATOM
      1 C1         13.9319   15.9404   64.5457 C.3       1            -0.1167
      2 C2         15.2440   15.5314   65.1638 C.ar      1            -0.0894
      3 C3         15.2739   15.0343   66.4547 C.ar      1            -0.0992
      4 C4         16.4743   14.6563   67.0285 C.ar      1            -0.1157
      5 C5         17.6503   14.7733   66.3156 C.ar      1            -0.1052
      6 C6         17.6265   15.2736   65.0144 C.ar      1            -0.0484
      7 C7         16.4124   15.6480   64.4393 C.ar      1            -0.0588
      8 C8         18.8851   15.4017   64.2439 C.2       1             0.4704
      9 N1         19.0066   16.3386   63.3444 N.2       1            -0.7324
     10 N2         19.9227   14.5352   64.4763 N.pl3     1            -0.6107
     11 O1         21.2587   14.9619   64.2809 O.3       1            -0.1167
     12 C9         22.0982   13.9791   63.9142 C.2       1             0.4966
     13 O2         21.6836   12.8447   63.7795 O.2       1            -0.4883
     14 C10        23.5255   14.2776   63.6748 C.ar      1            -0.1427
     15 C11        24.4945   13.2991   63.9046 C.ar      1            -0.0536
     16 C12        25.8250   13.5842   63.6787 C.ar      1            -0.1397
     17 C13        26.2001   14.8366   63.2254 C.ar      1            -0.0362
     18 C14        27.6558   15.1409   62.9807 C.3       1            -0.1245
     19 C15        25.2450   15.8106   62.9952 C.ar      1            -0.1361
     20 C16        23.9103   15.5372   63.2125 C.ar      1            -0.0044
     21 C17        22.8707   16.5976   62.9563 C.3       1            -0.1278
     22 H1         13.1265   15.7782   65.2620 H         1             0.0737
     23 H2         13.9707   16.9957   64.2756 H         1             0.0690
     24 H3         13.7494   15.3431   63.6523 H         1             0.0704
     25 H4         14.3563   14.9412   67.0166 H         1             0.1281
     26 H5         16.4916   14.2693   68.0366 H         1             0.1308
     27 H6         18.5870   14.4782   66.7648 H         1             0.1223
     28 H7         16.3872   16.0324   63.4303 H         1             0.1433
     29 H8         19.8307   16.4225   62.8398 H         1             0.3455
     30 H9         19.7414   13.6302   64.7744 H         1             0.4215
     31 H10        24.2031   12.3213   64.2587 H         1             0.1370
     32 H11        26.5757   12.8284   63.8564 H         1             0.1350
     33 H12        27.7583   16.1676   62.6293 H         1             0.0799
     34 H13        28.2138   15.0171   63.9089 H         1             0.0731
     35 H14        28.0481   14.4581   62.2271 H         1             0.0735
     36 H15        25.5446   16.7861   62.6415 H         1             0.1361
     37 H16        23.3579   17.5062   62.6025 H         1             0.0810
     38 H17        22.1691   16.2438   62.2009 H         1             0.0667
     39 H18        22.3329   16.8101   63.8804 H         1             0.0923
@<TRIPOS>BOND
     1    1    2 1 
     2    1   22 1 
     3    1   23 1 
     4    1   24 1 
     5    2    7 ar
     6    2    3 ar
     7    3    4 ar
     8    3   25 1 
     9    4    5 ar
    10    4   26 1 
    11    5    6 ar
    12    5   27 1 
    13    6    7 ar
    14    6    8 1 
    15    7   28 1 
    16    8    9 2 
    17    8   10 1 
    18    9   29 1 
    19   10   11 1 
    20   10   30 1 
    21   11   12 1 
    22   12   13 2 
    23   12   14 1 
    24   14   20 ar
    25   14   15 ar
    26   15   16 ar
    27   15   31 1 
    28   16   17 ar
    29   16   32 1 
    30   17   18 1 
    31   17   19 ar
    32   18   33 1 
    33   18   34 1 
    34   18   35 1 
    35   19   20 ar
    36   19   36 1 
    37   20   21 1 
    38   21   37 1 
    39   21   38 1 
    40   21   39 1 
##########                 Name:            E25940219
##########          Protonation:                   26
##########               SMILES:   [H]/N=C(/c1cccc(c1)C)\NOC(=O)Oc2ccccc2
##########            Long Name:   [(3-methylbenzenecarboximidoyl)amino]
##########          FlexRecCode: 1
##########               Number:                  485
##########   Ligand Source File: /raidb/db2/rgc/leads-emolecules-300/leads-emolecules-3-ay-0000002.db2.gz
##########           GlobalRank: 2415
##########                 Rank:                    1
##########               Setnum:                   39
##########             Matchnum:                 6050
##########                Cloud:                    1
##########        Electrostatic:            -7.986541
##########        Van der Waals:           -32.269569
##########  Ligand Polar Desolv:             4.101145
########## Ligand Apolar Desolv:            -5.052745
##########      Internal Energy:             0.000000
##########      Receptor Energy: 0.0
########## Receptor Desolvation:             0.000000
########## Receptor Hydrophobic:             0.000000
##########         Total Energy: -41.21
##########        Ligand Charge:             0.000000
##########            Arbitrary:    +999.9990
##########     heavy atom count:   20
##########           pose count:    1
##########        Ligand Energy:             0.000000
# num electro vdwattr vdwrepu polsolv apolsol rdesolv rhydroe totalscore fullpol fullapo
#   1   -1.50   -1.80    0.54   -0.12   -0.13    0.00    0.00      -3.01   -0.19   -0.20
#   2   -1.22   -2.50    0.73    0.02   -0.25    0.00    0.00      -3.22    0.03   -0.40
#   3   -0.79   -2.99    0.85   -0.10   -0.29    0.00    0.00      -3.32   -0.16   -0.45
#   4   -0.21   -3.95    1.46   -0.14   -0.32    0.00    0.00      -3.16   -0.21   -0.47
#   5   -0.53   -3.04    0.85    0.00   -0.28    0.00    0.00      -3.00    0.00   -0.44
#   6   -0.56   -2.15    0.44    0.13   -0.26    0.00    0.00      -2.40    0.21   -0.41
#   7   -0.90   -2.50    0.69    0.13   -0.26    0.00    0.00      -2.84    0.21   -0.43
#   8    5.25   -1.79    0.26   -1.20   -1.27    0.00    0.00       1.25   -2.08   -2.20
#   9  -12.41   -2.56    1.50    2.47    0.69    0.00    0.00     -10.31    4.66    1.31
#  10   -3.65   -1.83    0.30    1.24    0.38    0.00    0.00      -3.56    2.09    0.64
#  11   -0.33   -1.36    0.22    0.26   -0.45    0.00    0.00      -1.65    0.45   -0.77
#  12    2.00   -2.29    0.64   -1.71    0.01    0.00    0.00      -1.34   -2.98    0.02
#  13   -2.76   -3.93    2.51    2.03   -0.38    0.00    0.00      -2.54    3.23   -0.61
#  14   -0.14   -1.88    0.62    0.63   -0.13    0.00    0.00      -0.90    1.25   -0.26
#  15   -0.13   -1.53    0.38   -0.04   -0.10    0.00    0.00      -1.42   -0.10   -0.24
#  16    0.06   -1.48    0.23    0.06   -0.19    0.00    0.00      -1.32    0.15   -0.46
#  17    0.56   -1.09    0.08   -0.07   -0.19    0.00    0.00      -0.70   -0.17   -0.47
#  18    0.96   -1.04    0.16   -0.08   -0.15    0.00    0.00      -0.16   -0.24   -0.47
#  19    0.76   -1.69    0.88   -0.04   -0.17    0.00    0.00      -0.26   -0.10   -0.47
#  20    0.50   -1.85    1.23    0.11   -0.18    0.00    0.00      -0.20    0.27   -0.46
#  21    0.85   -0.41    0.07    0.09   -0.15    0.00    0.00       0.45    0.17   -0.28
#  22    1.28   -1.08    0.98    0.17   -0.15    0.00    0.00       1.20    0.30   -0.28
#  23    0.66   -0.56    0.15    0.03   -0.14    0.00    0.00       0.16    0.07   -0.28
#  24    0.92   -0.64    0.18    0.39   -0.15    0.00    0.00       0.68    0.71   -0.28
#  25   -0.72   -1.25    0.67    0.54   -0.19    0.00    0.00      -0.95    0.80   -0.28
#  26    0.40   -0.90    0.81    0.16   -0.13    0.00    0.00       0.35    0.28   -0.22
#  27    2.43   -0.56    0.14   -0.26   -0.14    0.00    0.00       1.60   -0.49   -0.27
#  28    3.71   -0.03    0.00   -0.76    0.19    0.00    0.00       3.12   -2.08    0.53
#  29    1.74   -0.04    0.00   -0.39    0.17    0.00    0.00       1.48   -0.85    0.37
#  30    0.44   -0.51    0.24    0.00   -0.11    0.00    0.00       0.06   -0.01   -0.28
#  31   -0.83   -0.24    0.02    0.26   -0.09    0.00    0.00      -0.89    0.83   -0.28
#  32   -1.96   -0.17    0.01    0.20   -0.05    0.00    0.00      -1.98    1.01   -0.28
#  33   -1.02   -0.39    0.16    0.20   -0.09    0.00    0.00      -1.14    0.62   -0.28
#  34   -0.81   -0.43    0.17   -0.09   -0.10    0.00    0.00      -1.27   -0.25   -0.28
@<TRIPOS>MOLECULE
E25940219
   34    35     0     0     0
SMALL
USER_CHARGES


@<TRIPOS>ATOM
      1 C1         13.9800   16.4053   64.9719 C.3       1            -0.1170
      2 C2         15.2429   15.7341   65.4469 C.ar      1            -0.0886
      3 C3         15.2555   15.0642   66.6574 C.ar      1            -0.0975
      4 C4         16.4108   14.4458   67.1000 C.ar      1            -0.1150
      5 C5         17.5587   14.4934   66.3353 C.ar      1            -0.1048
      6 C6         17.5520   15.1665   65.1143 C.ar      1            -0.0480
      7 C7         16.3828   15.7840   64.6712 C.ar      1            -0.0573
      8 C8         18.7808   15.2217   64.2890 C.2       1             0.4719
      9 N1         18.9999   16.2471   63.5131 N.2       1            -0.7256
     10 N2         19.6884   14.1945   64.3407 N.pl3     1            -0.5955
     11 O1         20.8630   14.2472   63.5517 O.3       1            -0.0829
     12 C9         21.9129   13.6097   64.0925 C.2       1             0.5859
     13 O2         21.7343   12.6478   64.8128 O.2       1            -0.5166
     14 O3         23.1643   14.0361   63.8368 O.3       1            -0.2569
     15 C10        23.3172   15.1160   63.0256 C.ar      1             0.0787
     16 C11        22.7543   16.3343   63.3772 C.ar      1            -0.1049
     17 C12        22.9110   17.4304   62.5509 C.ar      1            -0.1065
     18 C13        23.6275   17.3138   61.3742 C.ar      1            -0.1014
     19 C14        24.1890   16.1005   61.0214 C.ar      1            -0.1060
     20 C15        24.0409   15.0032   61.8474 C.ar      1            -0.1060
     21 H1         13.1917   16.2606   65.7106 H         1             0.0742
     22 H2         14.1629   17.4716   64.8397 H         1             0.0694
     23 H3         13.6719   15.9689   64.0217 H         1             0.0708
     24 H4         14.3596   15.0242   67.2593 H         1             0.1289
     25 H5         16.4147   13.9249   68.0461 H         1             0.1317
     26 H6         18.4603   14.0104   66.6820 H         1             0.1230
     27 H7         16.3705   16.3035   63.7244 H         1             0.1442
     28 H8         19.8046   16.2832   62.9724 H         1             0.3491
     29 H9         19.5256   13.4320   64.9178 H         1             0.4252
     30 H10        22.1940   16.4257   64.2958 H         1             0.1362
     31 H11        22.4730   18.3790   62.8242 H         1             0.1380
     32 H12        23.7486   18.1717   60.7295 H         1             0.1346
     33 H13        24.7477   16.0117   60.1013 H         1             0.1365
     34 H14        24.4840   14.0570   61.5739 H         1             0.1323
@<TRIPOS>BOND
     1    1    2 1 
     2    1   21 1 
     3    1   22 1 
     4    1   23 1 
     5    2    7 ar
     6    2    3 ar
     7    3    4 ar
     8    3   24 1 
     9    4    5 ar
    10    4   25 1 
    11    5    6 ar
    12    5   26 1 
    13    6    7 ar
    14    6    8 1 
    15    7   27 1 
    16    8    9 2 
    17    8   10 1 
    18    9   28 1 
    19   10   11 1 
    20   10   29 1 
    21   11   12 1 
    22   12   13 2 
    23   12   14 1 
    24   14   15 1 
    25   15   20 ar
    26   15   16 ar
    27   16   17 ar
    28   16   30 1 
    29   17   18 ar
    30   17   31 1 
    31   18   19 ar
    32   18   32 1 
    33   19   20 ar
    34   19   33 1 
    35   20   34 1 
##########                 Name:            E11807363
##########          Protonation:                  100
##########               SMILES:   c1ccn2c(c1)nc(c2[N+](=O)[O-])Nc3ccc4c(c3)OCO4
##########            Long Name:   N-(1,3-benzodioxol-5-yl)-3-nitro-imidazo[1,2-a]pyridin-2-amine
##########          FlexRecCode: 1
##########               Number:                  304
##########   Ligand Source File: /raidb/db2/rgc/leads-emolecules-300/leads-emolecules-lt300-2i-0000239.db2.gz
##########           GlobalRank: 2426
##########                 Rank:                    1
##########               Setnum:                    5
##########             Matchnum:                 3566
##########                Cloud:                    1
##########        Electrostatic:            -9.660473
##########        Van der Waals:           -32.832092
##########  Ligand Polar Desolv:             5.385416
########## Ligand Apolar Desolv:            -4.088000
##########      Internal Energy:             0.000000
##########      Receptor Energy: 0.0
########## Receptor Desolvation:             0.000000
########## Receptor Hydrophobic:             0.000000
##########         Total Energy: -41.2
##########        Ligand Charge:             0.000000
##########            Arbitrary:    +999.9990
##########     heavy atom count:   22
##########           pose count:    1
##########        Ligand Energy:             0.000000
# num electro vdwattr vdwrepu polsolv apolsol rdesolv rhydroe totalscore fullpol fullapo
#   1   -0.59   -2.81    0.91    0.77   -0.25    0.00    0.00      -1.96    1.24   -0.40
#   2    0.01   -2.06    0.44   -0.08    0.25    0.00    0.00      -1.44   -0.14    0.46
#   3    0.34   -2.28    1.04    0.57   -0.20    0.00    0.00      -0.53    1.14   -0.40
#   4   -0.34   -1.65    0.43    0.47   -0.99    0.00    0.00      -2.08    1.00   -2.12
#   5    3.56   -2.02    0.78   -0.98   -1.02    0.00    0.00       0.32   -2.03   -2.12
#   6   -5.43   -2.23    0.87    1.17    0.55    0.00    0.00      -5.08    2.13    1.00
#   7    2.02   -1.95    0.31   -0.33   -0.42    0.00    0.00      -0.36   -0.54   -0.69
#   8   -1.68   -2.46    0.66    0.19   -0.24    0.00    0.00      -3.53    0.32   -0.41
#   9   -1.02   -3.37    1.25    0.10   -0.28    0.00    0.00      -3.33    0.16   -0.47
#  10    0.23   -2.72    0.91    0.02   -0.20    0.00    0.00      -1.76    0.04   -0.33
#  11   -3.78   -2.06    0.42    0.72    0.32    0.00    0.00      -4.39    1.13    0.50
#  12    2.20   -1.51    0.33   -0.05    0.01    0.00    0.00       0.98   -0.08    0.02
#  13   -3.01   -2.47    0.70    0.83    0.33    0.00    0.00      -3.62    1.27    0.51
#  14    0.73   -2.54    0.66   -0.09   -0.22    0.00    0.00      -1.46   -0.14   -0.33
#  15   -1.33   -2.37    0.39    0.29   -0.30    0.00    0.00      -3.31    0.45   -0.46
#  16   -5.81   -3.02    2.48    0.85    0.76    0.00    0.00      -4.74    1.81    1.63
#  17    0.15   -1.60    0.36   -0.10   -0.93    0.00    0.00      -2.11   -0.22   -2.10
#  18    0.66   -1.44    0.25   -0.21   -0.21    0.00    0.00      -0.96   -0.46   -0.47
#  19    0.98   -0.97    0.05   -0.12   -0.19    0.00    0.00      -0.25   -0.31   -0.47
#  20    1.08   -0.98    0.12   -0.19   -0.15    0.00    0.00      -0.12   -0.59   -0.47
#  21   -0.23   -1.36    0.54    0.00   -0.32    0.00    0.00      -1.38    0.00   -0.92
#  22    0.32   -1.45    0.45    0.24    0.34    0.00    0.00      -0.11    0.59    0.84
#  23    2.85   -0.05    0.00   -0.44    0.26    0.00    0.00       2.63   -1.01    0.60
#  24    1.81   -0.53    0.18   -0.18   -0.10    0.00    0.00       1.19   -0.39   -0.21
#  25    0.98   -1.30    1.39    0.03   -0.17    0.00    0.00       0.93    0.05   -0.28
#  26    1.43   -0.48    0.11    0.31   -0.16    0.00    0.00       1.20    0.55   -0.28
#  27    0.70   -0.68    0.68    0.11   -0.13    0.00    0.00       0.67    0.23   -0.28
#  28    0.84   -0.58    0.09   -0.15   -0.17    0.00    0.00       0.04   -0.25   -0.28
#  29   -1.80   -0.51    0.31    0.49   -0.10    0.00    0.00      -1.62    1.40   -0.28
#  30   -2.94   -0.18    0.01    0.61   -0.06    0.00    0.00      -2.56    2.97   -0.28
#  31   -1.77   -0.15    0.01    0.47   -0.05    0.00    0.00      -1.50    2.69   -0.28
#  32   -0.79   -0.24    0.05    0.08   -0.06    0.00    0.00      -0.96    0.36   -0.28
@<TRIPOS>MOLECULE
E11807363
   32    35     0     0     0
SMALL
USER_CHARGES


@<TRIPOS>ATOM
      1 O1         21.6845   12.9172   64.4818 O.2       1            -0.1238
      2 N1         22.3279   13.7888   63.7329 N.pl3     1             0.0037
      3 O2         23.4815   13.4632   63.1871 O.3       1            -0.1202
      4 C1         21.7467   15.1441   63.4976 C.2       1            -0.1315
      5 C2         20.4723   15.6712   64.0219 C.2       1             0.4546
      6 N2         19.5830   15.0069   64.8275 N.pl3     1            -0.6219
      7 C3         18.2306   15.3001   64.7560 C.ar      1             0.1665
      8 C4         17.6723   15.7324   63.5518 C.ar      1            -0.1144
      9 C5         16.3271   16.0237   63.4802 C.ar      1            -0.0720
     10 C6         15.5231   15.8893   64.6055 C.ar      1             0.0154
     11 O3         14.1906   16.1098   64.7949 O.3       1            -0.3061
     12 C7         13.8552   15.4199   66.0132 C.3       1             0.2134
     13 O4         15.0903   15.4088   66.7531 O.3       1            -0.3060
     14 C8         16.0785   15.4572   65.8133 C.ar      1             0.0588
     15 C9         17.4254   15.1582   65.8849 C.ar      1            -0.1314
     16 N3         20.3526   16.8997   63.5694 N.2       1            -0.5030
     17 C10        21.4198   17.2180   62.8069 C.2       1             0.2772
     18 C11        21.7268   18.3908   62.1275 C.2       1            -0.0842
     19 C12        22.9151   18.4759   61.3931 C.2       1            -0.0762
     20 C13        23.7740   17.3843   61.3530 C.2       1            -0.1118
     21 C14        23.4479   16.2344   62.0341 C.2       1             0.0458
     22 N4         22.2874   16.1583   62.7557 N.pl3     1            -0.2847
     23 H1         19.9008   14.3318   65.4473 H         1             0.4269
     24 H2         18.2947   15.8383   62.6755 H         1             0.1543
     25 H3         15.8969   16.3578   62.5474 H         1             0.1425
     26 H4         13.0855   15.9632   66.5613 H         1             0.1340
     27 H5         13.5281   14.4023   65.7993 H         1             0.0865
     28 H6         17.8550   14.8196   66.8160 H         1             0.1405
     29 H7         21.0513   19.2325   62.1657 H         1             0.1699
     30 H8         23.1624   19.3828   60.8614 H         1             0.1594
     31 H9         24.6937   17.4383   60.7893 H         1             0.1680
     32 H10        24.1153   15.3859   62.0025 H         1             0.1698
@<TRIPOS>BOND
     1    1    2 2 
     2    2    3 1 
     3    2    4 1 
     4    4   22 1 
     5    4    5 2 
     6    5    6 1 
     7    5   16 1 
     8    6    7 1 
     9    6   23 1 
    10    7   15 ar
    11    7    8 ar
    12    8    9 ar
    13    8   24 1 
    14    9   10 ar
    15    9   25 1 
    16   10   14 ar
    17   10   11 1 
    18   11   12 1 
    19   12   13 1 
    20   12   26 1 
    21   12   27 1 
    22   13   14 1 
    23   14   15 ar
    24   15   28 1 
    25   16   17 2 
    26   17   22 1 
    27   17   18 1 
    28   18   19 2 
    29   18   29 1 
    30   19   20 1 
    31   19   30 1 
    32   20   21 2 
    33   20   31 1 
    34   21   22 1 
    35   21   32 1 
##########                 Name:            E46059252
##########          Protonation:                   81
##########               SMILES:   C[NH+](C)[C@@H]1CN(C[C@H]1C2CC2)Cc3cncn3CCOC
##########            Long Name:   -[[3-(2-methoxyethyl)imidazol-4-yl]methyl]pyrrolidin-3-yl]-dimethyl-ammonium
##########          FlexRecCode: 1
##########               Number:                  206
##########   Ligand Source File: /raidb/db2/rgc/leads-emolecules-300/leads-emolecules-2f-0000147.db2.gz
##########           GlobalRank: 2449
##########                 Rank:                    1
##########               Setnum:                   47
##########             Matchnum:                 1542
##########                Cloud:                    1
##########        Electrostatic:           -19.872461
##########        Van der Waals:           -25.078520
##########  Ligand Polar Desolv:             6.219228
########## Ligand Apolar Desolv:            -2.451829
##########      Internal Energy:             0.000000
##########      Receptor Energy: 0.0
########## Receptor Desolvation:             0.000000
########## Receptor Hydrophobic:             0.000000
##########         Total Energy: -41.18
##########        Ligand Charge:             1.000000
##########            Arbitrary:    +999.9990
##########     heavy atom count:   21
##########           pose count:    1
##########        Ligand Energy:             0.000000
# num electro vdwattr vdwrepu polsolv apolsol rdesolv rhydroe totalscore fullpol fullapo
#   1    0.43   -1.63    0.38    0.13    0.02    0.00    0.00      -0.66    0.20    0.03
#   2   -6.62   -1.87    0.33   -1.97    0.84    0.00    0.00      -9.29   -3.23    1.37
#   3    0.50   -1.25    0.19    0.31   -0.08    0.00    0.00      -0.32    0.52   -0.13
#   4    1.10   -1.11    0.16    0.71   -0.25    0.00    0.00       0.60    1.34   -0.48
#   5   -2.20   -1.58    0.25   -2.55    0.66    0.00    0.00      -5.42   -4.45    1.15
#   6    0.74   -2.07    0.34    0.65   -1.99    0.00    0.00      -2.32    1.05   -3.20
#   7   -1.98   -2.89    0.74   -2.08    1.40    0.00    0.00      -4.82   -3.37    2.26
#   8   -0.02   -2.13    0.59   -0.34   -0.53    0.00    0.00      -2.43   -0.65   -1.01
#   9   -0.07   -1.69    0.41    0.06   -0.32    0.00    0.00      -1.62    0.12   -0.66
#  10    0.07   -1.07    0.19    0.92   -0.16    0.00    0.00      -0.05    2.13   -0.38
#  11    2.35   -1.31    0.39   -3.99    1.37    0.00    0.00      -1.18  -10.34    3.56
#  12   -0.21   -0.89    0.31    0.21   -0.15    0.00    0.00      -0.72    0.63   -0.44
#  13    0.71   -0.56    0.04   -0.36   -0.05    0.00    0.00      -0.22   -1.20   -0.15
#  14    1.60   -1.03    0.24   -0.84   -0.11    0.00    0.00      -0.14   -2.40   -0.32
#  15    0.60   -0.68    0.09   -1.06   -0.13    0.00    0.00      -1.17   -3.64   -0.43
#  16    1.57   -0.85    0.17   -1.05   -0.13    0.00    0.00      -0.28   -3.36   -0.42
#  17   -0.30   -0.68    0.05    0.63   -0.07    0.00    0.00      -0.36    1.72   -0.19
#  18   -0.19   -0.69    0.04    0.14   -0.14    0.00    0.00      -0.83    0.33   -0.33
#  19    7.42   -0.94    0.16   -3.81    0.10    0.00    0.00       2.93  -11.18    0.29
#  20   -8.37   -0.02    0.00    2.75    0.10    0.00    0.00      -5.54   15.89    0.55
#  21    1.55   -1.77    1.00   -0.87   -0.16    0.00    0.00      -0.25   -2.15   -0.40
#  22    0.64   -0.99    0.25   -0.56   -0.15    0.00    0.00      -0.81   -1.70   -0.47
#  23    0.86   -0.56    0.21    0.19   -0.13    0.00    0.00       0.57    0.42   -0.28
#  24    0.80   -0.71    0.57    0.38   -0.12    0.00    0.00       0.92    0.90   -0.28
#  25    0.51   -0.62    0.27    0.33   -0.15    0.00    0.00       0.33    0.61   -0.28
#  26    0.55   -0.49    0.18    0.17   -0.13    0.00    0.00       0.28    0.37   -0.28
#  27    0.38   -0.59    0.47    0.28   -0.10    0.00    0.00       0.44    0.70   -0.25
#  28    0.95   -0.40    0.08    0.57   -0.12    0.00    0.00       1.08    1.35   -0.28
#  29    1.63   -0.52    0.27    0.45   -0.10    0.00    0.00       1.71    1.19   -0.28
#  30    0.48   -0.50    0.10    1.18   -0.16    0.00    0.00       1.09    2.06   -0.28
#  31   -0.25   -0.41    0.10    1.04   -0.11    0.00    0.00       0.38    2.72   -0.28
#  32    0.24   -0.53    0.27    0.80   -0.10    0.00    0.00       0.69    2.17   -0.26
#  33    0.01   -0.45    0.15    0.36   -0.09    0.00    0.00      -0.02    1.03   -0.25
#  34   -0.28   -0.18    0.01    0.41   -0.05    0.00    0.00      -0.09    2.16   -0.28
#  35   -0.71   -0.80    1.52    0.26   -0.09    0.00    0.00       0.18    0.77   -0.27
#  36   -0.82   -0.14    0.01    0.54   -0.03    0.00    0.00      -0.44    4.45   -0.22
#  37   -1.62   -0.83    0.84    0.33   -0.12    0.00    0.00      -1.39    0.79   -0.28
#  38   -0.30   -0.09    0.00    0.24   -0.03    0.00    0.00      -0.18    2.37   -0.28
#  39   -0.04   -0.47    0.38    0.09   -0.08    0.00    0.00      -0.12    0.33   -0.28
#  40   -0.69   -0.54    0.25    0.27   -0.10    0.00    0.00      -0.81    0.78   -0.28
#  41   -0.74   -0.12    0.01    0.46   -0.02    0.00    0.00      -0.41    3.97   -0.15
#  42   -3.08   -0.33    0.06    1.33   -0.09    0.00    0.00      -2.11    3.90   -0.26
#  43   -1.12   -0.25    0.03    0.46   -0.07    0.00    0.00      -0.96    1.73   -0.28
#  44   -0.49   -0.26    0.02    1.03   -0.07    0.00    0.00       0.23    3.31   -0.24
#  45   -3.29   -0.53    0.25    1.28   -0.09    0.00    0.00      -2.38    3.75   -0.25
#  46   -4.72   -1.34    2.71    2.29   -0.12    0.00    0.00      -1.17    5.26   -0.28
#  47   -3.23   -0.43    0.12    1.40   -0.07    0.00    0.00      -2.22    3.72   -0.19
#  48   -1.38   -0.29    0.09    0.78   -0.05    0.00    0.00      -0.86    3.75   -0.24
#  49   -1.85   -0.65    0.56    1.53   -0.09    0.00    0.00      -0.50    4.89   -0.28
#  50   -1.01   -0.26    0.04    0.76   -0.06    0.00    0.00      -0.53    3.43   -0.28
@<TRIPOS>MOLECULE
E46059252
   50    52     0     0     0
SMALL
USER_CHARGES


@<TRIPOS>ATOM
      1 C1         16.3216   15.6007   65.6743 C.3       1             0.0317
      2 O1         17.3267   15.9452   64.7187 O.3       1            -0.3873
      3 C2         18.4514   15.0638   64.7147 C.3       1             0.0471
      4 C3         19.4579   15.5259   63.6592 C.3       1             0.1057
      5 N1         20.6110   14.6222   63.6552 N.pl3     1            -0.4418
      6 C4         20.5716   13.2727   63.6842 C.2       1             0.1999
      7 N2         21.7947   12.8181   63.6694 N.2       1            -0.4888
      8 C5         22.6500   13.8505   63.6309 C.2       1            -0.0137
      9 C6         21.9294   14.9881   63.6154 C.2       1            -0.0303
     10 C7         22.4706   16.3937   63.5671 C.3       1             0.1197
     11 N3         22.6145   16.8151   62.1672 N.3       1            -0.4945
     12 C8         23.8514   16.2862   61.5837 C.3       1             0.0319
     13 C9         24.6121   17.4959   61.0185 C.3       1            -0.0696
     14 C10        25.3350   17.1341   59.7194 C.3       1            -0.1535
     15 C11        26.7784   16.6390   59.8285 C.3       1            -0.1658
     16 C12        26.4886   18.0368   59.2779 C.3       1            -0.1907
     17 C13        23.4516   18.4752   60.7534 C.3       1             0.0187
     18 C14        22.6745   18.2752   62.0619 C.3       1             0.0204
     19 N4         23.9326   19.8567   60.6181 N.4       1            -0.3830
     20 H1         24.7942   19.8629   60.0932 H         1             0.4227
     21 C15        22.9241   20.6593   59.9132 C.3       1            -0.0553
     22 C16        24.1672   20.4264   61.9516 C.3       1            -0.0505
     23 H2         15.5024   16.3173   65.6144 H         1             0.0476
     24 H3         15.9452   14.6001   65.4611 H         1             0.0947
     25 H4         16.7503   15.6217   66.6763 H         1             0.0444
     26 H5         18.9243   15.0736   65.6968 H         1             0.0598
     27 H6         18.1193   14.0521   64.4816 H         1             0.0527
     28 H7         18.9851   15.5160   62.6773 H         1             0.1047
     29 H8         19.7900   16.5377   63.8924 H         1             0.1069
     30 H9         19.6762   12.6697   63.7151 H         1             0.2093
     31 H10        23.7276   13.7814   63.6115 H         1             0.1641
     32 H11        21.7825   17.0658   64.0799 H         1             0.0708
     33 H12        23.4432   16.4256   64.0580 H         1             0.0931
     34 H13        24.4477   15.7943   62.3522 H         1             0.0617
     35 H14        23.6179   15.5834   60.7840 H         1             0.1075
     36 H15        25.3086   17.8997   61.7532 H         1             0.0964
     37 H16        24.7104   16.6977   58.9399 H         1             0.1236
     38 H17        27.2133   16.5713   60.8258 H         1             0.0979
     39 H18        27.1040   15.8767   59.1207 H         1             0.1058
     40 H19        26.6233   18.1940   58.2077 H         1             0.1055
     41 H20        26.7326   18.8885   59.9128 H         1             0.0919
     42 H21        22.8624   18.1721   59.8880 H         1             0.1532
     43 H22        21.6739   18.7014   61.9891 H         1             0.1150
     44 H23        23.2157   18.7041   62.9052 H         1             0.0659
     45 H24        23.2809   21.6843   59.8128 H         1             0.1266
     46 H25        22.7500   20.2366   58.9238 H         1             0.1288
     47 H26        21.9931   20.6525   60.4801 H         1             0.1230
     48 H27        24.5240   21.4514   61.8511 H         1             0.1242
     49 H28        23.2363   20.4196   62.5185 H         1             0.1271
     50 H29        24.9155   19.8307   62.4746 H         1             0.1248
@<TRIPOS>BOND
     1    1    2 1 
     2    1   23 1 
     3    1   24 1 
     4    1   25 1 
     5    2    3 1 
     6    3    4 1 
     7    3   26 1 
     8    3   27 1 
     9    4    5 1 
    10    4   28 1 
    11    4   29 1 
    12    5    9 1 
    13    5    6 1 
    14    6    7 2 
    15    6   30 1 
    16    7    8 1 
    17    8    9 2 
    18    8   31 1 
    19    9   10 1 
    20   10   11 1 
    21   10   32 1 
    22   10   33 1 
    23   11   18 1 
    24   11   12 1 
    25   12   13 1 
    26   12   34 1 
    27   12   35 1 
    28   13   14 1 
    29   13   17 1 
    30   13   36 1 
    31   14   16 1 
    32   14   15 1 
    33   14   37 1 
    34   15   16 1 
    35   15   38 1 
    36   15   39 1 
    37   16   40 1 
    38   16   41 1 
    39   17   18 1 
    40   17   19 1 
    41   17   42 1 
    42   18   43 1 
    43   18   44 1 
    44   19   20 1 
    45   19   21 1 
    46   19   22 1 
    47   21   45 1 
    48   21   46 1 
    49   21   47 1 
    50   22   48 1 
    51   22   49 1 
    52   22   50 1 
##########                 Name:            E29912912
##########          Protonation:                   80
##########               SMILES:   c1ccnc(c1)C[NH+]2CC[C@H](C2)c3nc4cc(ccc4o3)F
##########            Long Name:   5-fluoro-2-[(3R)-1-(2-pyridylmethyl)pyrrolidin-1-ium-3-yl]-1,3-benzoxazole
##########          FlexRecCode: 1
##########               Number:                  559
##########   Ligand Source File: /raidb/db2/rgc/leads-emolecules-300/leads-emolecules-2h-0000379.db2.gz
##########           GlobalRank: 2466
##########                 Rank:                    1
##########               Setnum:                   63
##########             Matchnum:                 2494
##########                Cloud:                    1
##########        Electrostatic:           -22.515985
##########        Van der Waals:           -26.136068
##########  Ligand Polar Desolv:            10.039235
########## Ligand Apolar Desolv:            -2.556231
##########      Internal Energy:             0.000000
##########      Receptor Energy: 0.0
########## Receptor Desolvation:             0.000000
########## Receptor Hydrophobic:             0.000000
##########         Total Energy: -41.17
##########        Ligand Charge:             1.000000
##########            Arbitrary:    +999.9990
##########     heavy atom count:   22
##########           pose count:    1
##########        Ligand Energy:             0.000000
# num electro vdwattr vdwrepu polsolv apolsol rdesolv rhydroe totalscore fullpol fullapo
#   1   -0.11   -1.96    0.64   -0.50   -0.32    0.00    0.00      -2.25   -0.75   -0.48
#   2    0.44   -2.11    0.37    0.24   -0.21    0.00    0.00      -1.27    0.39   -0.34
#   3   -0.34   -2.63    0.74   -0.72   -0.27    0.00    0.00      -3.22   -1.22   -0.46
#   4   -0.02   -1.94    0.52   -0.27   -0.23    0.00    0.00      -1.93   -0.56   -0.47
#   5    0.01   -1.55    0.39   -0.13   -0.15    0.00    0.00      -1.43   -0.29   -0.35
#   6    0.47   -1.01    0.08   -1.18    0.13    0.00    0.00      -1.51   -2.88    0.31
#   7   -0.42   -1.50    0.26    2.15   -0.26    0.00    0.00       0.24    4.93   -0.60
#   8   -2.89   -2.06    0.87   -2.91    1.48    0.00    0.00      -5.52   -6.50    3.30
#   9    0.19   -1.62    0.43    0.06   -0.35    0.00    0.00      -1.29    0.14   -0.78
#  10   -0.52   -1.62    0.27   -0.57   -0.28    0.00    0.00      -2.73   -0.97   -0.47
#  11    0.10   -1.26    0.28   -0.23   -0.10    0.00    0.00      -1.20   -0.52   -0.23
#  12    2.11   -1.07    0.16   -1.57   -0.13    0.00    0.00      -0.50   -3.15   -0.26
#  13    0.35   -1.18    0.27    0.12   -0.20    0.00    0.00      -0.64    0.28   -0.46
#  14    7.24   -1.30    0.42   -4.03    0.17    0.00    0.00       2.50  -10.99    0.45
#  15   -9.86   -0.07    0.01    5.35    0.18    0.00    0.00      -4.40   16.78    0.56
#  16   -0.91   -0.63    0.08    0.61   -0.10    0.00    0.00      -0.95    2.09   -0.34
#  17   -0.35   -0.85    0.09    0.43   -0.16    0.00    0.00      -0.83    1.71   -0.62
#  18    0.59   -0.78    0.07   -0.75   -0.12    0.00    0.00      -0.98   -3.00   -0.46
#  19   -0.17   -0.87    0.11   -0.53   -0.13    0.00    0.00      -1.60   -1.94   -0.48
#  20   -0.38   -0.96    0.12   -0.84   -0.14    0.00    0.00      -2.20   -2.86   -0.48
#  21    0.28   -1.33    0.49    0.22   -0.24    0.00    0.00      -0.57    0.89   -0.98
#  22    0.66   -1.20    0.27   -2.21    0.41    0.00    0.00      -2.07   -9.01    1.65
#  23    0.00   -0.99    0.15    0.29   -0.17    0.00    0.00      -0.72    0.76   -0.44
#  24    0.85   -1.06    0.87    1.14   -0.16    0.00    0.00       1.64    2.03   -0.28
#  25   -0.26   -0.35    0.07    0.90   -0.10    0.00    0.00       0.26    2.59   -0.28
#  26    1.17   -0.32    0.04    0.42   -0.10    0.00    0.00       1.20    1.13   -0.28
#  27   -1.10   -0.93    0.66    2.67   -0.13    0.00    0.00       1.18    5.68   -0.28
#  28   -1.65   -0.29    0.03    0.45   -0.10    0.00    0.00      -1.55    1.22   -0.26
#  29   -2.05   -0.49    0.18    1.08   -0.12    0.00    0.00      -1.39    2.61   -0.28
#  30   -3.95   -0.37    0.09    0.98   -0.07    0.00    0.00      -3.33    2.88   -0.21
#  31   -4.19   -0.94    1.41    2.06   -0.12    0.00    0.00      -1.78    4.99   -0.28
#  32   -1.97   -0.13    0.01    0.84   -0.03    0.00    0.00      -1.29    7.08   -0.28
#  33   -3.17   -0.38    0.27    0.86   -0.06    0.00    0.00      -2.48    3.75   -0.28
#  34   -1.25   -0.14    0.01    0.87   -0.04    0.00    0.00      -0.56    5.63   -0.28
#  35    0.33   -0.25    0.12    0.50   -0.05    0.00    0.00       0.65    2.59   -0.28
#  36    0.46   -0.21    0.03    0.42   -0.06    0.00    0.00       0.62    1.81   -0.28
#  37    0.41   -0.33    0.18    0.45   -0.06    0.00    0.00       0.66    2.25   -0.28
#  38   -1.13   -0.63    0.24    2.78   -0.10    0.00    0.00       1.16    7.52   -0.28
#  39   -1.48   -0.16    0.01    0.58   -0.04    0.00    0.00      -1.09    3.74   -0.26
@<TRIPOS>MOLECULE
E29912912
   39    42     0     0     0
SMALL
USER_CHARGES


@<TRIPOS>ATOM
      1 F1         20.0301   12.1865   64.0854 F         1            -0.1208
      2 C1         20.7833   13.2770   63.8228 C.ar      1             0.1142
      3 C2         22.1688   13.1770   63.8284 C.ar      1            -0.1103
      4 C3         22.9502   14.2816   63.5621 C.ar      1            -0.0601
      5 C4         22.3518   15.5016   63.2865 C.ar      1             0.0102
      6 O1         22.8255   16.7335   62.9950 O.3       1            -0.2002
      7 C5         21.7778   17.5535   62.8182 C.2       1             0.2378
      8 N1         20.6647   16.9041   62.9828 N.2       1            -0.4549
      9 C6         20.9528   15.6079   63.2795 C.ar      1             0.0431
     10 C7         20.1724   14.4814   63.5450 C.ar      1            -0.0960
     11 C8         21.8783   19.0181   62.4780 C.3       1            -0.0114
     12 C9         21.2815   19.2852   61.1014 C.3       1            -0.1301
     13 C10        22.4267   19.8884   60.2802 C.3       1            -0.0143
     14 N2         23.3318   20.4706   61.3016 N.4       1            -0.3852
     15 H1         22.9602   21.3401   61.6537 H         1             0.4276
     16 C11        24.6788   20.6683   60.7497 C.3       1             0.0576
     17 C12        25.4228   21.6750   61.5887 C.ar      1             0.0515
     18 C13        25.3400   23.0190   61.2764 C.ar      1            -0.1422
     19 C14        26.0283   23.9369   62.0547 C.ar      1            -0.0670
     20 C15        26.7773   23.4665   63.1226 C.ar      1            -0.1346
     21 C16        26.8126   22.1083   63.3740 C.ar      1             0.1113
     22 N3         26.1408   21.2642   62.6155 N.ar      1            -0.4678
     23 C17        23.3429   19.4382   62.3626 C.3       1             0.0001
     24 H2         22.6372   12.2278   64.0431 H         1             0.1626
     25 H3         24.0269   14.1966   63.5686 H         1             0.1539
     26 H4         19.0949   14.5539   63.5369 H         1             0.1542
     27 H5         21.3699   19.6176   63.2332 H         1             0.1397
     28 H6         20.9403   18.3540   60.6490 H         1             0.1157
     29 H7         20.4558   19.9927   61.1770 H         1             0.1222
     30 H8         22.9399   19.1123   59.7123 H         1             0.1538
     31 H9         22.0514   20.6654   59.6142 H         1             0.1328
     32 H10        25.2172   19.7205   60.7569 H         1             0.1454
     33 H11        24.6019   21.0345   59.7258 H         1             0.1477
     34 H12        24.7470   23.3498   60.4366 H         1             0.1449
     35 H13        25.9824   24.9932   61.8342 H         1             0.1497
     36 H14        27.3265   24.1532   63.7499 H         1             0.1510
     37 H15        27.3937   21.7339   64.2038 H         1             0.1720
     38 H16        23.6950   19.8606   63.3038 H         1             0.1484
     39 H17        23.9615   18.5912   62.0659 H         1             0.1475
@<TRIPOS>BOND
     1    1    2 1 
     2    2   10 ar
     3    2    3 ar
     4    3    4 ar
     5    3   24 1 
     6    4    5 ar
     7    4   25 1 
     8    5    9 ar
     9    5    6 1 
    10    6    7 1 
    11    7    8 2 
    12    7   11 1 
    13    8    9 1 
    14    9   10 ar
    15   10   26 1 
    16   11   23 1 
    17   11   12 1 
    18   11   27 1 
    19   12   13 1 
    20   12   28 1 
    21   12   29 1 
    22   13   14 1 
    23   13   30 1 
    24   13   31 1 
    25   14   15 1 
    26   14   16 1 
    27   14   23 1 
    28   16   17 1 
    29   16   32 1 
    30   16   33 1 
    31   17   22 ar
    32   17   18 ar
    33   18   19 ar
    34   18   34 1 
    35   19   20 ar
    36   19   35 1 
    37   20   21 ar
    38   20   36 1 
    39   21   22 ar
    40   21   37 1 
    41   23   38 1 
    42   23   39 1 
##########                 Name:             E3990310
##########          Protonation:                   14
##########               SMILES:   c1cc(ccc1[C@@H]2CC(=CC(=O)C2)NCCc3c[nH]c[nH+]3)F
##########            Long Name:   (4-fluorophenyl)-3-[2-(1H-imidazol-3-ium-4-yl)ethylamino]cyclohex-2-en-1-one
##########          FlexRecCode: 1
##########               Number:                  154
##########   Ligand Source File: /raidb/db2/rgc/leads-emolecules-300/leads-emolecules-3-ca-0000004.db2.gz
##########           GlobalRank: 2486
##########                 Rank:                    1
##########               Setnum:                  182
##########             Matchnum:                  445
##########                Cloud:                    1
##########        Electrostatic:           -22.829691
##########        Van der Waals:           -28.931326
##########  Ligand Polar Desolv:            15.134587
########## Ligand Apolar Desolv:            -4.520449
##########      Internal Energy:             0.000000
##########      Receptor Energy: 0.0
########## Receptor Desolvation:             0.000000
########## Receptor Hydrophobic:             0.000000
##########         Total Energy: -41.15
##########        Ligand Charge:             1.000000
##########            Arbitrary:    +999.9990
##########     heavy atom count:   22
##########           pose count:    1
##########        Ligand Energy:             0.000000
# num electro vdwattr vdwrepu polsolv apolsol rdesolv rhydroe totalscore fullpol fullapo
#   1   -1.37   -1.06    0.17   -0.14   -0.31    0.00    0.00      -2.71   -0.21   -0.48
#   2    1.19   -2.72    1.81    0.01   -0.21    0.00    0.00       0.08    0.02   -0.34
#   3   -1.18   -2.95    0.97   -0.68   -0.30    0.00    0.00      -4.15   -1.07   -0.47
#   4   -0.59   -2.75    0.65   -0.51   -0.29    0.00    0.00      -3.49   -0.79   -0.45
#   5   -1.18   -2.19    0.51   -0.50   -0.21    0.00    0.00      -3.57   -0.80   -0.33
#   6   -1.24   -2.71    0.86   -0.47   -0.24    0.00    0.00      -3.80   -0.79   -0.40
#   7   -1.91   -3.18    1.65   -0.68   -0.28    0.00    0.00      -4.40   -1.14   -0.47
#   8   -0.30   -1.30    0.27   -0.08   -0.09    0.00    0.00      -1.50   -0.14   -0.15
#   9   -0.85   -1.49    0.43   -0.80   -0.14    0.00    0.00      -2.85   -1.33   -0.23
#  10    1.70   -1.94    0.36    1.10   -0.19    0.00    0.00       1.03    1.82   -0.31
#  11   -2.31   -2.78    0.65    0.70    0.28    0.00    0.00      -3.46    1.09    0.44
#  12   -1.32   -1.68    0.37   -2.54   -0.22    0.00    0.00      -5.39   -4.92   -0.43
#  13    1.56   -1.81    0.49    2.58   -0.33    0.00    0.00       2.51    5.64   -0.71
#  14   -1.44   -1.54    0.67   -0.89   -0.11    0.00    0.00      -3.31   -1.71   -0.21
#  15   -1.26   -1.75    0.40   -6.29    0.73    0.00    0.00      -8.17  -14.01    1.63
#  16   -0.16   -1.27    0.26    0.94   -0.16    0.00    0.00      -0.39    2.14   -0.36
#  17    0.36   -1.89    0.61   -0.61   -0.11    0.00    0.00      -1.64   -1.37   -0.25
#  18   -0.33   -1.36    0.17   -0.12   -0.27    0.00    0.00      -1.90   -0.30   -0.69
#  19   -0.58   -0.84    0.05    0.22   -0.31    0.00    0.00      -1.46    0.71   -1.01
#  20   11.40   -1.46    0.40   -5.69    0.44    0.00    0.00       5.09  -15.78    1.22
#  21   -7.24   -1.73    0.37    4.61   -1.39    0.00    0.00      -5.39   11.03   -3.33
#  22    7.52   -2.00    0.62   -6.27    0.48    0.00    0.00       0.35  -14.64    1.11
#  23   -6.34   -0.05    0.00    6.11    0.24    0.00    0.00      -0.04   15.26    0.60
#  24    0.55   -0.68    0.16    0.50   -0.16    0.00    0.00       0.37    0.87   -0.28
#  25    0.39   -0.65    0.12    1.25   -0.17    0.00    0.00       0.94    2.05   -0.28
#  26    1.82   -0.61    0.20    1.30   -0.13    0.00    0.00       2.58    2.46   -0.24
#  27    0.99   -0.98    0.93    0.59   -0.15    0.00    0.00       1.37    1.06   -0.28
#  28    0.87   -0.78    1.03    0.62   -0.12    0.00    0.00       1.62    1.35   -0.27
#  29    0.19   -0.72    0.39    0.09   -0.14    0.00    0.00      -0.19    0.18   -0.28
#  30    0.56   -0.64    0.52    0.54   -0.12    0.00    0.00       0.87    1.12   -0.25
#  31    0.13   -0.29    0.04    0.37   -0.07    0.00    0.00       0.18    1.14   -0.21
#  32    1.34   -0.41    0.10    1.01   -0.11    0.00    0.00       1.94    2.38   -0.25
#  33    2.38   -1.46    4.62    1.30   -0.13    0.00    0.00       6.71    2.86   -0.28
#  34   -0.02   -0.03    0.00    3.25    0.18    0.00    0.00       3.38   10.44    0.57
#  35    0.18   -0.82    0.63    0.69   -0.12    0.00    0.00       0.55    1.56   -0.27
#  36   -0.26   -0.22    0.02    0.33   -0.06    0.00    0.00      -0.19    1.45   -0.27
#  37   -0.32   -1.04    0.61    1.76   -0.15    0.00    0.00       0.86    3.39   -0.28
#  38   -0.76   -1.36    2.40    1.47   -0.11    0.00    0.00       1.63    3.59   -0.28
#  39   -2.33   -0.12    0.00    0.79   -0.03    0.00    0.00      -1.69    6.73   -0.28
#  40  -14.64   -0.07    0.01    4.34    0.17    0.00    0.00     -10.18   14.99    0.60
#  41   -8.03   -0.72    0.61    4.93   -0.11    0.00    0.00      -3.33   12.19   -0.28
@<TRIPOS>MOLECULE
E3990310
   41    43     0     0     0
SMALL
USER_CHARGES


@<TRIPOS>ATOM
      1 F1         13.3502   15.4735   65.4765 F         1            -0.1360
      2 C1         14.6890   15.3814   65.3202 C.ar      1             0.1031
      3 C2         15.4780   14.9220   66.3611 C.ar      1            -0.1500
      4 C3         16.8473   14.8282   66.2001 C.ar      1            -0.0810
      5 C4         17.4294   15.1927   65.0003 C.ar      1            -0.0984
      6 C5         16.6425   15.6515   63.9603 C.ar      1            -0.0850
      7 C6         15.2724   15.7408   64.1171 C.ar      1            -0.1501
      8 C7         18.9228   15.0905   64.8261 C.3       1            -0.0294
      9 C8         19.2810   13.7093   64.2683 C.3       1            -0.1661
     10 C9         20.7661   13.6486   64.0196 C.2       1             0.4019
     11 O1         21.3457   12.5828   64.0918 O.2       1            -0.4892
     12 C10        21.4833   14.8076   63.7070 C.2       1            -0.3777
     13 C11        20.8798   16.0123   63.6153 C.2       1             0.2576
     14 C12        19.3988   16.1610   63.8401 C.3       1            -0.0966
     15 N1         21.6247   17.1126   63.3135 N.pl3     1            -0.7188
     16 C13        23.0314   17.1782   63.7176 C.3       1             0.1159
     17 C14        23.4928   18.6370   63.7234 C.3       1            -0.0756
     18 C15        23.3394   19.2179   62.3413 C.2       1             0.0304
     19 C16        24.2691   19.1984   61.3671 C.2       1             0.0432
     20 N2         23.7206   19.8298   60.2836 N.pl3     1            -0.5088
     21 C17        22.4738   20.2133   60.6336 C.cat     1             0.3124
     22 N3         22.2511   19.8395   61.8638 N.pl3     1            -0.4742
     23 H1         21.4288   19.9893   62.3560 H         1             0.4658
     24 H2         15.0236   14.6374   67.2987 H         1             0.1387
     25 H3         17.4632   14.4703   67.0120 H         1             0.1342
     26 H4         17.0983   15.9364   63.0236 H         1             0.1324
     27 H5         14.6574   16.0949   63.3030 H         1             0.1382
     28 H6         19.4135   15.2362   65.7884 H         1             0.0925
     29 H7         19.0004   12.9411   64.9889 H         1             0.0983
     30 H8         18.7477   13.5448   63.3320 H         1             0.1004
     31 H9         22.5472   14.7375   63.5346 H         1             0.1215
     32 H10        18.8730   16.0420   62.8927 H         1             0.1029
     33 H11        19.1913   17.1498   64.2492 H         1             0.0925
     34 H12        21.2237   17.8524   62.8311 H         1             0.4076
     35 H13        23.1422   16.7580   64.7173 H         1             0.0813
     36 H14        23.6385   16.6079   63.0144 H         1             0.0739
     37 H15        22.8856   19.2071   64.4265 H         1             0.1048
     38 H16        24.5393   18.6859   64.0240 H         1             0.1209
     39 H17        25.2577   18.7678   61.4291 H         1             0.2284
     40 H18        24.1476   19.9748   59.4248 H         1             0.4696
     41 H19        21.7756   20.7386   59.9990 H         1             0.2684
@<TRIPOS>BOND
     1    1    2 1 
     2    2    7 ar
     3    2    3 ar
     4    3    4 ar
     5    3   24 1 
     6    4    5 ar
     7    4   25 1 
     8    5    6 ar
     9    5    8 1 
    10    6    7 ar
    11    6   26 1 
    12    7   27 1 
    13    8   14 1 
    14    8    9 1 
    15    8   28 1 
    16    9   10 1 
    17    9   29 1 
    18    9   30 1 
    19   10   11 2 
    20   10   12 1 
    21   12   13 2 
    22   12   31 1 
    23   13   14 1 
    24   13   15 1 
    25   14   32 1 
    26   14   33 1 
    27   15   16 1 
    28   15   34 1 
    29   16   17 1 
    30   16   35 1 
    31   16   36 1 
    32   17   18 1 
    33   17   37 1 
    34   17   38 1 
    35   18   22 1 
    36   18   19 2 
    37   19   20 1 
    38   19   39 1 
    39   20   21 1 
    40   20   40 1 
    41   21   22 2 
    42   21   41 1 
    43   22   23 1 
##########                 Name:            E44315678
##########          Protonation:                   59
##########               SMILES:   c1cc(cnc1)CN2C[C@@H]3C[NH+](C[C@H]3C2)CC4CCCC4
##########            Long Name:   l)-5-(3-pyridylmethyl)-2,3,3a,4,6,6a-hexahydro-1H-pyrrolo[3,4-c]pyrrol-2-ium
##########          FlexRecCode: 1
##########               Number:                  133
##########   Ligand Source File: /raidb/db2/rgc/leads-emolecules-300/leads-emolecules-2b-0000045.db2.gz
##########           GlobalRank: 2497
##########                 Rank:                    1
##########               Setnum:                   62
##########             Matchnum:                  837
##########                Cloud:                    1
##########        Electrostatic:           -24.727852
##########        Van der Waals:           -23.471661
##########  Ligand Polar Desolv:             9.288733
########## Ligand Apolar Desolv:            -2.227679
##########      Internal Energy:             0.000000
##########      Receptor Energy: 0.0
########## Receptor Desolvation:             0.000000
########## Receptor Hydrophobic:             0.000000
##########         Total Energy: -41.14
##########        Ligand Charge:             1.000000
##########            Arbitrary:    +999.9990
##########     heavy atom count:   21
##########           pose count:    1
##########        Ligand Energy:             0.000000
# num electro vdwattr vdwrepu polsolv apolsol rdesolv rhydroe totalscore fullpol fullapo
#   1    0.00   -1.08    0.27    0.21   -0.09    0.00    0.00      -0.69    0.63   -0.26
#   2    1.16   -0.49    0.03   -0.65   -0.05    0.00    0.00       0.01   -2.54   -0.18
#   3    0.56   -0.47    0.03   -0.78   -0.06    0.00    0.00      -0.72   -3.04   -0.23
#   4    0.33   -0.44    0.02   -0.68   -0.08    0.00    0.00      -0.86   -2.48   -0.29
#   5    0.30   -0.43    0.02   -0.57   -0.07    0.00    0.00      -0.74   -2.31   -0.29
#   6    0.92   -0.76    0.24   -0.64   -0.07    0.00    0.00      -0.31   -2.44   -0.27
#   7   10.35   -1.83    1.51   -4.41    0.17    0.00    0.00       5.79  -12.34    0.47
#   8  -18.03   -0.21    0.14    5.56    0.18    0.00    0.00     -12.36   15.79    0.50
#   9   -0.52   -1.13    0.23    0.45   -0.19    0.00    0.00      -1.16    1.03   -0.43
#  10    2.17   -0.66    0.03   -1.54   -0.07    0.00    0.00      -0.07   -3.72   -0.18
#  11   -0.47   -0.91    0.24    0.47   -0.21    0.00    0.00      -0.88    1.13   -0.50
#  12    2.48   -1.30    0.42   -3.46    1.28    0.00    0.00      -0.57   -9.60    3.57
#  13    0.01   -1.07    0.19    0.65   -0.16    0.00    0.00      -0.37    1.54   -0.37
#  14   -0.39   -1.68    0.40   -0.57   -0.17    0.00    0.00      -2.41   -1.20   -0.36
#  15    0.26   -2.09    0.51    0.16   -0.52    0.00    0.00      -1.67    0.30   -0.95
#  16   -2.00   -2.75    0.60   -1.14    1.29    0.00    0.00      -4.01   -1.81    2.04
#  17    0.35   -2.39    0.47    0.06   -0.62    0.00    0.00      -2.14    0.09   -0.98
#  18   -1.07   -1.76    0.28   -0.96   -0.28    0.00    0.00      -3.80   -1.63   -0.48
#  19   -0.46   -1.62    0.31   -0.39   -0.22    0.00    0.00      -2.39   -0.77   -0.43
#  20   -0.45   -0.59    0.05    0.30   -0.12    0.00    0.00      -0.82    0.98   -0.40
#  21    1.84   -0.58    0.04   -1.06   -0.07    0.00    0.00       0.17   -3.37   -0.21
#  22   -0.29   -0.57    0.07    0.39   -0.13    0.00    0.00      -0.54    1.38   -0.46
#  23   -2.94   -0.63    0.86    1.54   -0.08    0.00    0.00      -1.24    5.08   -0.27
#  24   -3.07   -0.70    0.57    1.79   -0.10    0.00    0.00      -1.51    5.06   -0.28
#  25   -0.65   -0.11    0.00    0.37   -0.02    0.00    0.00      -0.41    3.36   -0.22
#  26   -0.56   -0.19    0.02    0.51   -0.05    0.00    0.00      -0.26    2.77   -0.26
#  27    0.17   -0.14    0.01    0.39   -0.04    0.00    0.00       0.38    2.53   -0.28
#  28   -0.32   -0.15    0.01    0.06   -0.04    0.00    0.00      -0.44    0.38   -0.28
#  29   -0.01   -0.18    0.02    0.10   -0.06    0.00    0.00      -0.13    0.48   -0.28
#  30   -0.11   -0.21    0.03    0.18   -0.05    0.00    0.00      -0.16    0.94   -0.28
#  31   -0.04   -0.09    0.00    0.00   -0.02    0.00    0.00      -0.15   -0.02   -0.28
#  32   -0.73   -0.24    0.07    0.15   -0.05    0.00    0.00      -0.80    0.81   -0.28
#  33   -0.50   -0.53    0.52    0.59   -0.08    0.00    0.00       0.00    2.03   -0.27
#  34   -3.41   -0.39    0.08    1.88   -0.08    0.00    0.00      -1.92    5.06   -0.21
#  35   -3.85   -0.55    0.20    2.02   -0.12    0.00    0.00      -2.30    4.89   -0.28
#  36   -1.05   -0.24    0.02    0.73   -0.07    0.00    0.00      -0.61    2.91   -0.27
#  37   -0.16   -0.27    0.05    0.36   -0.07    0.00    0.00      -0.10    1.27   -0.26
#  38   -0.94   -0.60    0.68    0.54   -0.10    0.00    0.00      -0.42    1.52   -0.28
#  39    0.02   -0.49    0.24    0.48   -0.09    0.00    0.00       0.16    1.45   -0.27
#  40    0.14   -0.45    0.13    0.40   -0.10    0.00    0.00       0.12    1.06   -0.27
#  41   -0.07   -0.44    0.10    0.44   -0.12    0.00    0.00      -0.09    1.04   -0.28
#  42   -0.03   -0.80    0.43    0.58   -0.17    0.00    0.00       0.01    0.95   -0.28
#  43    1.16   -0.42    0.14    0.79   -0.11    0.00    0.00       1.56    2.08   -0.28
#  44    1.46   -0.38    0.10    1.12   -0.09    0.00    0.00       2.20    3.19   -0.27
#  45   -0.46   -0.33    0.11    0.43   -0.06    0.00    0.00      -0.30    1.83   -0.25
#  46   -0.62   -0.14    0.01    0.09   -0.04    0.00    0.00      -0.70    0.70   -0.28
#  47   -1.88   -0.30    0.07    0.77   -0.08    0.00    0.00      -1.42    2.72   -0.28
#  48   -1.91   -0.16    0.02    0.78   -0.04    0.00    0.00      -1.31    5.67   -0.28
#  49   -1.40   -0.15    0.01    0.79   -0.04    0.00    0.00      -0.79    5.20   -0.27
@<TRIPOS>MOLECULE
E44315678
   49    52     0     0     0
SMALL
USER_CHARGES


@<TRIPOS>ATOM
      1 C1         23.8127   21.6875   60.3410 C.3       1            -0.0002
      2 C2         25.2579   22.1512   60.5333 C.3       1            -0.1195
      3 C3         25.2876   23.6104   60.9553 C.3       1            -0.1397
      4 C4         26.1187   24.3475   59.9021 C.3       1            -0.1245
      5 C5         27.0217   23.2343   59.3280 C.3       1            -0.1299
      6 C6         26.0144   22.0751   59.2119 C.3       1            -0.1172
      7 N1         23.8016   20.2761   59.9336 N.4       1            -0.4028
      8 H1         24.0001   20.2024   58.9471 H         1             0.4273
      9 C7         22.4628   19.6728   60.2288 C.3       1             0.0220
     10 C8         22.7295   18.6776   61.3117 C.3       1            -0.1560
     11 C9         22.0389   17.3820   61.5923 C.3       1             0.0632
     12 N2         23.1039   16.5066   62.1775 N.3       1            -0.5111
     13 C10        22.8020   16.1733   63.5760 C.3       1             0.0923
     14 C11        21.7901   15.0574   63.6192 C.ar      1            -0.1433
     15 C12        22.2032   13.7386   63.6448 C.ar      1             0.1242
     16 N3         21.3237   12.7570   63.6830 N.ar      1            -0.4816
     17 C13        20.0256   12.9891   63.6983 C.ar      1             0.1073
     18 C14        19.5383   14.2820   63.6746 C.ar      1            -0.1718
     19 C15        20.4332   15.3408   63.6396 C.ar      1            -0.0705
     20 C16        24.4076   17.2428   62.0693 C.3       1             0.0610
     21 C17        24.1643   18.1620   60.8915 C.3       1            -0.1389
     22 C18        24.8284   19.5119   60.7178 C.3       1             0.0191
     23 H2         23.2674   21.7994   61.2781 H         1             0.1313
     24 H3         23.3367   22.2923   59.5691 H         1             0.1274
     25 H4         25.7519   21.5352   61.2847 H         1             0.0955
     26 H5         24.2751   24.0130   60.9827 H         1             0.0734
     27 H6         25.7539   23.7076   61.9357 H         1             0.0748
     28 H7         25.4764   24.7619   59.1249 H         1             0.0772
     29 H8         26.7191   25.1311   60.3639 H         1             0.0753
     30 H9         27.4147   23.5125   58.3501 H         1             0.0713
     31 H10        27.8274   22.9866   60.0192 H         1             0.0771
     32 H11        26.5325   21.1208   59.1178 H         1             0.0804
     33 H12        25.3392   22.2328   58.3708 H         1             0.0735
     34 H13        21.7695   20.4381   60.5780 H         1             0.1375
     35 H14        22.0667   19.1748   59.3438 H         1             0.1363
     36 H15        22.8360   19.2120   62.2558 H         1             0.0922
     37 H16        21.2312   17.5292   62.3094 H         1             0.0827
     38 H17        21.6547   16.9482   60.6691 H         1             0.0966
     39 H18        23.7152   15.8554   64.0791 H         1             0.0513
     40 H19        22.3966   17.0510   64.0792 H         1             0.0967
     41 H20        23.2586   13.5095   63.6329 H         1             0.1560
     42 H21        19.3353   12.1590   63.7295 H         1             0.1595
     43 H22        18.4742   14.4656   63.6874 H         1             0.1377
     44 H23        20.0814   16.3617   63.6249 H         1             0.1271
     45 H24        24.6048   17.8169   62.9747 H         1             0.0633
     46 H25        25.2258   16.5534   61.8604 H         1             0.1005
     47 H26        24.1361   17.6044   59.9552 H         1             0.1208
     48 H27        25.7562   19.4185   60.1536 H         1             0.1413
     49 H28        25.0070   19.9828   61.6845 H         1             0.1339
@<TRIPOS>BOND
     1    1    2 1 
     2    1    7 1 
     3    1   23 1 
     4    1   24 1 
     5    2    6 1 
     6    2    3 1 
     7    2   25 1 
     8    3    4 1 
     9    3   26 1 
    10    3   27 1 
    11    4    5 1 
    12    4   28 1 
    13    4   29 1 
    14    5    6 1 
    15    5   30 1 
    16    5   31 1 
    17    6   32 1 
    18    6   33 1 
    19    7    8 1 
    20    7   22 1 
    21    7    9 1 
    22    9   10 1 
    23    9   34 1 
    24    9   35 1 
    25   10   21 1 
    26   10   11 1 
    27   10   36 1 
    28   11   12 1 
    29   11   37 1 
    30   11   38 1 
    31   12   13 1 
    32   12   20 1 
    33   13   14 1 
    34   13   39 1 
    35   13   40 1 
    36   14   19 ar
    37   14   15 ar
    38   15   16 ar
    39   15   41 1 
    40   16   17 ar
    41   17   18 ar
    42   17   42 1 
    43   18   19 ar
    44   18   43 1 
    45   19   44 1 
    46   20   21 1 
    47   20   45 1 
    48   20   46 1 
    49   21   22 1 
    50   21   47 1 
    51   22   48 1 
    52   22   49 1 
##########                 Name:             E1001760
##########          Protonation:                   99
##########               SMILES:   CC/[NH+]=c\1/[nH+]c(nc([n-]1)Oc2ccc(=O)n(n2)C)N
##########            Long Name:   -yl)oxy-5-aza-3-azonia-1-azanidacyclohexa-3,5-dien-2-ylidene]-ethyl-ammonium
##########          FlexRecCode: 1
##########               Number:                  134
##########   Ligand Source File: /raidb/db2/rgc/leads-emolecules-300/leads-lt300-emolecules-1c-0000148.db2.gz
##########           GlobalRank: 2497
##########                 Rank:                    1
##########               Setnum:                  143
##########             Matchnum:                 3701
##########                Cloud:                    1
##########        Electrostatic:           -27.898647
##########        Van der Waals:           -25.776468
##########  Ligand Polar Desolv:            13.073843
########## Ligand Apolar Desolv:            -0.535031
##########      Internal Energy:             0.000000
##########      Receptor Energy: 0.0
########## Receptor Desolvation:             0.000000
########## Receptor Hydrophobic:             0.000000
##########         Total Energy: -41.14
##########        Ligand Charge:             1.000000
##########            Arbitrary:    +999.9990
##########     heavy atom count:   19
##########           pose count:    1
##########        Ligand Energy:             0.000000
# num electro vdwattr vdwrepu polsolv apolsol rdesolv rhydroe totalscore fullpol fullapo
#   1    0.71   -1.17    0.31   -1.13   -0.07    0.00    0.00      -1.35   -3.26   -0.21
#   2   -0.90   -0.73    0.09    0.74   -0.17    0.00    0.00      -0.97    2.31   -0.53
#   3   12.23   -2.12    0.99   -5.38    0.59    0.00    0.00       6.30  -15.14    1.65
#   4  -12.51   -0.11    0.02    4.74    0.21    0.00    0.00      -7.66   13.13    0.59
#   5  -12.48   -1.24    0.18    5.92   -1.74    0.00    0.00      -9.37   16.36   -4.81
#   6    5.94   -0.89    0.05   -4.38    1.07    0.00    0.00       1.79  -11.68    2.85
#   7   -4.77   -1.22    0.10    4.43   -0.91    0.00    0.00      -2.38   10.59   -2.18
#   8    0.11   -1.63    0.37   -1.24    0.19    0.00    0.00      -2.20   -2.70    0.42
#   9    0.46   -1.71    0.40    1.53   -0.29    0.00    0.00       0.39    3.49   -0.67
#  10   -1.14   -1.63    0.31   -1.10    0.84    0.00    0.00      -2.73   -2.39    1.82
#  11   -1.75   -1.62    0.30   -2.32    1.00    0.00    0.00      -4.39   -4.00    1.72
#  12    0.53   -1.43    0.40    0.63   -0.33    0.00    0.00      -0.19    1.06   -0.55
#  13    1.43   -2.07    0.45    1.65   -0.37    0.00    0.00       1.10    2.82   -0.64
#  14   -2.77   -3.32    1.16   -0.44    0.28    0.00    0.00      -5.08   -0.68    0.44
#  15   -0.06   -2.13    0.73   -0.90   -0.23    0.00    0.00      -2.60   -1.82   -0.46
#  16   -0.02   -1.83    0.49   -0.15   -0.20    0.00    0.00      -1.71   -0.35   -0.46
#  17    6.74   -1.93    0.55   -5.67    1.09    0.00    0.00       0.77  -12.11    2.33
#  18  -14.40   -1.73    0.29    8.21   -2.38    0.00    0.00     -10.02   17.17   -4.98
#  19   19.73   -3.63    2.70  -11.35    0.54    0.00    0.00       7.99  -19.84    0.95
#  20   15.54   -1.86    0.43   -6.82    0.45    0.00    0.00       7.75  -15.70    1.03
#  21  -15.03   -0.07    0.00    6.47    0.24    0.00    0.00      -8.38   15.59    0.58
#  22   -0.06   -0.25    0.06    0.16   -0.06    0.00    0.00      -0.14    0.75   -0.28
#  23   -0.26   -1.15    1.50    0.65   -0.12    0.00    0.00       0.62    1.49   -0.28
#  24   -0.28   -0.22    0.02    0.23   -0.07    0.00    0.00      -0.30    1.00   -0.28
#  25   -0.89   -0.27    0.05    0.47   -0.06    0.00    0.00      -0.70    1.74   -0.23
#  26   -0.76   -0.11    0.00    0.28   -0.03    0.00    0.00      -0.61    2.70   -0.28
#  27    0.24   -0.55    0.18    1.75   -0.16    0.00    0.00       1.46    3.14   -0.28
#  28    0.63   -0.39    0.10    0.26   -0.11    0.00    0.00       0.49    0.67   -0.28
#  29    0.54   -0.64    0.41    0.32   -0.13    0.00    0.00       0.50    0.68   -0.28
#  30   -0.28   -0.50    0.18    0.89   -0.11    0.00    0.00       0.17    2.18   -0.28
#  31   -0.24   -0.40    0.13    1.21   -0.08    0.00    0.00       0.62    4.07   -0.28
#  32   -8.33   -0.05    0.00    6.48    0.32    0.00    0.00      -1.58   12.10    0.59
#  33  -15.80   -0.21    0.07    6.93    0.29    0.00    0.00      -8.73   14.34    0.59
@<TRIPOS>MOLECULE
E1001760
   33    34     0     0     0
SMALL
USER_CHARGES


@<TRIPOS>ATOM
      1 C1         26.6484   17.0120   58.9889 C.3       1            -0.1760
      2 C2         25.5643   17.1949   60.0530 C.3       1             0.0985
      3 N1         24.5989   18.1988   59.5991 N.pl3     1            -0.6442
      4 H1         24.7148   18.6283   58.7372 H         1             0.4318
      5 C3         23.5246   18.5336   60.3978 C.2       1             0.6939
      6 N2         23.3685   17.9488   61.5819 N.2       1            -0.5699
      7 C4         22.3352   18.2711   62.3507 C.2       1             0.6430
      8 O1         22.1773   17.6759   63.5558 O.3       1            -0.1575
      9 C5         22.0369   16.3251   63.5865 C.2       1             0.2494
     10 N3         20.8422   15.7942   63.5104 N.2       1            -0.2020
     11 N4         20.6733   14.4051   63.5395 N.am      1            -0.3928
     12 C6         19.3283   13.8311   63.4526 C.3       1             0.0994
     13 C7         21.7445   13.5936   63.6470 C.2       1             0.4889
     14 O2         21.5980   12.3818   63.6722 O.2       1            -0.5052
     15 C8         23.0352   14.1545   63.7297 C.2       1            -0.1168
     16 C9         23.1765   15.5068   63.6941 C.2       1            -0.0770
     17 N5         21.4570   19.1770   61.9383 N.2       1            -0.5705
     18 C10        21.6116   19.7627   60.7544 C.cat     1             0.6992
     19 N6         20.6987   20.7050   60.3261 N.pl3     1            -0.7645
     20 N7         22.6485   19.4446   59.9862 N.pl3     1            -0.6276
     21 H2         22.7638   19.8741   59.1242 H         1             0.4447
     22 H3         27.3668   16.2651   59.3266 H         1             0.0647
     23 H4         26.1904   16.6806   58.0570 H         1             0.0668
     24 H5         27.1602   17.9604   58.8251 H         1             0.0915
     25 H6         25.0525   16.2465   60.2168 H         1             0.1194
     26 H7         26.0223   17.5262   60.9850 H         1             0.1042
     27 H8         19.3942   12.7437   63.4908 H         1             0.0911
     28 H9         18.7262   14.1881   64.2881 H         1             0.0878
     29 H10        18.8637   14.1342   62.5143 H         1             0.0878
     30 H11        23.9029   13.5172   63.8165 H         1             0.1854
     31 H12        24.1593   15.9510   63.7523 H         1             0.1714
     32 H13        19.9442   20.9400   60.8885 H         1             0.4503
     33 H14        20.8116   21.1321   59.4625 H         1             0.4348
@<TRIPOS>BOND
     1    1    2 1 
     2    1   22 1 
     3    1   23 1 
     4    1   24 1 
     5    2    3 1 
     6    2   25 1 
     7    2   26 1 
     8    3    4 1 
     9    3    5 2 
    10    5   20 1 
    11    5    6 1 
    12    6    7 1 
    13    7    8 1 
    14    7   17 2 
    15    8    9 1 
    16    9   16 1 
    17    9   10 2 
    18   10   11 1 
    19   11   12 1 
    20   11   13 am
    21   12   27 1 
    22   12   28 1 
    23   12   29 1 
    24   13   14 2 
    25   13   15 1 
    26   15   16 2 
    27   15   30 1 
    28   16   31 1 
    29   17   18 1 
    30   18   19 1 
    31   18   20 2 
    32   19   32 1 
    33   19   33 1 
    34   20   21 1 
##########                 Name:            E24082383
##########          Protonation:                   81
##########               SMILES:   c1ccc(cc1)C[NH+]2CC[C@H](C2)NC(=O)c3ccncc3
##########            Long Name:   N-[(3R)-1-benzylpyrrolidin-1-ium-3-yl]pyridine-4-carboxamide
##########          FlexRecCode: 1
##########               Number:                  500
##########   Ligand Source File: /raidb/db2/rgc/leads-emolecules-300/leads-lt300-emolecules-1j-0000269.db2.gz
##########           GlobalRank: 2505
##########                 Rank:                    1
##########               Setnum:                   13
##########             Matchnum:                 3454
##########                Cloud:                    1
##########        Electrostatic:           -22.382608
##########        Van der Waals:           -23.885838
##########  Ligand Polar Desolv:             7.315600
########## Ligand Apolar Desolv:            -2.180865
##########      Internal Energy:             0.000000
##########      Receptor Energy: 0.0
########## Receptor Desolvation:             0.000000
########## Receptor Hydrophobic:             0.000000
##########         Total Energy: -41.13
##########        Ligand Charge:             1.000000
##########            Arbitrary:    +999.9990
##########     heavy atom count:   21
##########           pose count:    1
##########        Ligand Energy:             0.000000
# num electro vdwattr vdwrepu polsolv apolsol rdesolv rhydroe totalscore fullpol fullapo
#   1   -5.63   -3.97    5.00   -2.52    0.19    0.00    0.00      -6.94   -5.26    0.39
#   2    1.78   -1.85    0.54    3.62   -0.30    0.00    0.00       3.79    8.07   -0.66
#   3    2.36   -1.26    0.11   -6.41    0.88    0.00    0.00      -4.33  -15.12    2.07
#   4   -1.02   -1.21    0.20    1.16   -0.14    0.00    0.00      -1.01    2.67   -0.33
#   5    2.34   -1.02    0.15   -1.86   -0.13    0.00    0.00      -0.52   -4.02   -0.28
#   6    0.29   -0.83    0.09    0.06   -0.18    0.00    0.00      -0.57    0.16   -0.45
#   7    5.95   -1.14    0.29   -4.21    0.16    0.00    0.00       1.04  -12.16    0.45
#   8   -8.30   -0.05    0.00    4.49    0.16    0.00    0.00      -3.70   16.08    0.56
#   9   -0.55   -0.49    0.03    0.54   -0.09    0.00    0.00      -0.55    2.09   -0.33
#  10    0.71   -0.73    0.06   -0.68   -0.08    0.00    0.00      -0.72   -2.96   -0.34
#  11    0.30   -0.61    0.03   -0.46   -0.09    0.00    0.00      -0.83   -2.08   -0.40
#  12   -0.25   -0.77    0.09   -0.71   -0.12    0.00    0.00      -1.76   -2.69   -0.47
#  13   -0.24   -0.94    0.13   -0.64   -0.14    0.00    0.00      -1.83   -2.20   -0.47
#  14   -0.29   -1.05    0.24   -0.70   -0.12    0.00    0.00      -1.93   -2.72   -0.47
#  15   -0.11   -1.31    0.48   -0.48   -0.11    0.00    0.00      -1.54   -2.01   -0.45
#  16    0.17   -1.37    0.36    0.20   -0.17    0.00    0.00      -0.81    0.54   -0.45
#  17   -0.29   -1.65    0.40   -0.65   -0.19    0.00    0.00      -2.38   -1.39   -0.41
#  18   -0.07   -1.84    0.49   -0.71   -0.22    0.00    0.00      -2.35   -1.50   -0.46
#  19    0.04   -2.90    1.23    0.38   -0.53    0.00    0.00      -1.78    0.71   -0.98
#  20   -2.29   -3.72    1.59   -2.16    1.27    0.00    0.00      -5.31   -3.46    2.04
#  21    0.39   -2.26    0.39    0.17   -0.62    0.00    0.00      -1.92    0.27   -0.98
#  22   -0.53   -1.64    0.30   -0.72   -0.26    0.00    0.00      -2.85   -1.24   -0.45
#  23   -2.02   -0.01    0.00    2.26    0.09    0.00    0.00       0.31   11.93    0.45
#  24   -0.64   -0.76    0.34    0.93   -0.12    0.00    0.00      -0.25    1.96   -0.26
#  25   -1.31   -0.26    0.02    0.97   -0.09    0.00    0.00      -0.66    3.00   -0.28
#  26   -2.06   -0.57    0.27    0.34   -0.11    0.00    0.00      -2.12    0.88   -0.28
#  27   -2.56   -0.21    0.02    1.07   -0.04    0.00    0.00      -1.73    4.58   -0.18
#  28   -3.89   -0.47    0.19    1.40   -0.10    0.00    0.00      -2.87    3.90   -0.28
#  29   -1.28   -0.11    0.00    0.77   -0.03    0.00    0.00      -0.64    6.95   -0.28
#  30   -2.33   -0.24    0.09    1.01   -0.04    0.00    0.00      -1.51    6.28   -0.27
#  31   -0.91   -0.11    0.00    0.55   -0.03    0.00    0.00      -0.50    4.66   -0.24
#  32    0.18   -0.22    0.07    0.29   -0.06    0.00    0.00       0.27    1.48   -0.28
#  33    0.43   -0.32    0.10    0.19   -0.07    0.00    0.00       0.33    0.74   -0.28
#  34    0.35   -0.21    0.05    0.24   -0.05    0.00    0.00       0.38    1.44   -0.28
#  35    0.06   -0.54    0.45    1.16   -0.07    0.00    0.00       1.07    4.74   -0.28
#  36   -0.72   -1.23    1.39    2.78   -0.12    0.00    0.00       2.11    6.68   -0.28
#  37   -1.12   -0.31    0.07    1.74   -0.06    0.00    0.00       0.31    7.26   -0.26
#  38   -0.13   -0.31    0.05    1.60   -0.06    0.00    0.00       1.15    5.55   -0.22
#  39   -0.60   -0.85    0.83    1.33   -0.13    0.00    0.00       0.58    2.91   -0.28
#  40    0.27   -0.55    0.11    0.65   -0.17    0.00    0.00       0.32    1.10   -0.28
#  41    1.16   -0.27    0.02    0.29   -0.09    0.00    0.00       1.11    0.84   -0.27
@<TRIPOS>MOLECULE
E24082383
   41    43     0     0     0
SMALL
USER_CHARGES


@<TRIPOS>ATOM
      1 O1         20.5626   17.2721   63.9520 O.2       1            -0.5090
      2 C1         21.5476   16.7253   63.4968 C.2       1             0.5727
      3 N1         22.5222   17.4597   62.9246 N.am      1            -0.7213
      4 C2         22.3939   18.9172   62.8515 C.3       1             0.1328
      5 C3         21.7458   19.3333   61.5207 C.3       1            -0.1571
      6 C4         22.9882   19.6066   60.6497 C.3       1            -0.0140
      7 N2         23.8284   20.3665   61.5941 N.4       1            -0.3853
      8 H1         23.4462   21.2877   61.7471 H         1             0.4299
      9 C5         25.2092   20.4560   61.1007 C.3       1             0.0467
     10 C6         25.9121   21.6026   61.7804 C.ar      1            -0.1638
     11 C7         25.8705   22.8670   61.2231 C.ar      1            -0.0965
     12 C8         26.5154   23.9188   61.8466 C.ar      1            -0.1126
     13 C9         27.2016   23.7062   63.0276 C.ar      1            -0.0826
     14 C10        27.2424   22.4421   63.5855 C.ar      1            -0.1124
     15 C11        26.5939   21.3911   62.9642 C.ar      1            -0.0930
     16 C12        23.7743   19.5743   62.8267 C.3       1            -0.0192
     17 C13        21.6803   15.2519   63.5762 C.ar      1            -0.0996
     18 C14        22.9391   14.6444   63.6067 C.ar      1            -0.1443
     19 C15        23.0166   13.2671   63.6816 C.ar      1             0.1026
     20 N3         21.9253   12.5291   63.7240 N.ar      1            -0.4594
     21 C16        20.7196   13.0612   63.6975 C.ar      1             0.1069
     22 C17        20.5499   14.4306   63.6287 C.ar      1            -0.1107
     23 H2         23.3085   17.0232   62.5612 H         1             0.4093
     24 H3         21.8101   19.2894   63.6935 H         1             0.1299
     25 H4         21.1482   18.5214   61.1061 H         1             0.1032
     26 H5         21.1472   20.2361   61.6426 H         1             0.1197
     27 H6         23.4730   18.6762   60.3536 H         1             0.1357
     28 H7         22.7323   20.2100   59.7786 H         1             0.1357
     29 H8         25.7344   19.5264   61.3200 H         1             0.1379
     30 H9         25.1999   20.6227   60.0235 H         1             0.1358
     31 H10        25.3345   23.0329   60.3004 H         1             0.1299
     32 H11        26.4835   24.9063   61.4109 H         1             0.1366
     33 H12        27.7060   24.5278   63.5145 H         1             0.1366
     34 H13        27.7788   22.2760   64.5081 H         1             0.1368
     35 H14        26.6228   20.4043   63.4020 H         1             0.1316
     36 H15        23.8971   20.2221   63.6945 H         1             0.1465
     37 H16        24.5528   18.8115   62.8167 H         1             0.1385
     38 H17        23.8375   15.2428   63.5721 H         1             0.1364
     39 H18        23.9845   12.7885   63.7053 H         1             0.1667
     40 H19        19.8526   12.4183   63.7341 H         1             0.1705
     41 H20        19.5591   14.8599   63.6115 H         1             0.1519
@<TRIPOS>BOND
     1    1    2 2 
     2    2    3 am
     3    2   17 1 
     4    3    4 1 
     5    3   23 1 
     6    4   16 1 
     7    4    5 1 
     8    4   24 1 
     9    5    6 1 
    10    5   25 1 
    11    5   26 1 
    12    6    7 1 
    13    6   27 1 
    14    6   28 1 
    15    7    8 1 
    16    7    9 1 
    17    7   16 1 
    18    9   10 1 
    19    9   29 1 
    20    9   30 1 
    21   10   15 ar
    22   10   11 ar
    23   11   12 ar
    24   11   31 1 
    25   12   13 ar
    26   12   32 1 
    27   13   14 ar
    28   13   33 1 
    29   14   15 ar
    30   14   34 1 
    31   15   35 1 
    32   16   36 1 
    33   16   37 1 
    34   17   22 ar
    35   17   18 ar
    36   18   19 ar
    37   18   38 1 
    38   19   20 ar
    39   19   39 1 
    40   20   21 ar
    41   21   22 ar
    42   21   40 1 
    43   22   41 1 
##########                 Name:             E4697680
##########          Protonation:                   95
##########               SMILES:   CC[NH+](CC)CCN1c2ccccc2C(=C(C#N)C#N)C1=O
##########            Long Name:   2-[3-(dicyanomethylene)-2-oxo-indolin-1-yl]ethyl-diethyl-ammonium
##########          FlexRecCode: 1
##########               Number:                  530
##########   Ligand Source File: /raidb/db2/rgc/leads-emolecules-300/leads-emolecules-2g-0000086.db2.gz
##########           GlobalRank: 2551
##########                 Rank:                    1
##########               Setnum:                   13
##########             Matchnum:                 4809
##########                Cloud:                    1
##########        Electrostatic:           -19.880369
##########        Van der Waals:           -26.857985
##########  Ligand Polar Desolv:             9.654455
########## Ligand Apolar Desolv:            -4.009148
##########      Internal Energy:             0.000000
##########      Receptor Energy: 0.0
########## Receptor Desolvation:             0.000000
########## Receptor Hydrophobic:             0.000000
##########         Total Energy: -41.09
##########        Ligand Charge:             1.000000
##########            Arbitrary:    +999.9990
##########     heavy atom count:   22
##########           pose count:    1
##########        Ligand Energy:             0.000000
# num electro vdwattr vdwrepu polsolv apolsol rdesolv rhydroe totalscore fullpol fullapo
#   1    4.26   -1.49    0.43   -3.11   -0.10    0.00    0.00      -0.01   -5.90   -0.19
#   2    0.30   -0.79    0.06   -0.04   -0.17    0.00    0.00      -0.64   -0.10   -0.39
#   3    5.16   -0.78    0.06   -4.33    0.07    0.00    0.00       0.19  -11.96    0.20
#   4   -4.42   -0.02    0.00    3.20    0.11    0.00    0.00      -1.13   15.09    0.53
#   5    0.28   -1.20    0.47    0.10   -0.14    0.00    0.00      -0.49    0.29   -0.39
#   6    2.16   -0.88    0.17   -1.71   -0.06    0.00    0.00      -0.33   -5.20   -0.19
#   7    0.35   -0.68    0.07   -0.23   -0.12    0.00    0.00      -0.61   -0.72   -0.36
#   8   -0.46   -1.42    0.31    0.76   -0.18    0.00    0.00      -0.99    1.76   -0.41
#   9    0.67   -1.65    0.25   -4.77    0.62    0.00    0.00      -4.87  -11.16    1.46
#  10    1.62   -1.85    0.54    3.81   -0.30    0.00    0.00       3.82    8.51   -0.67
#  11   -3.85   -2.89    2.18   -2.75    0.19    0.00    0.00      -7.12   -5.87    0.40
#  12   -0.06   -1.67    0.40    0.38   -0.21    0.00    0.00      -1.16    0.78   -0.44
#  13    0.73   -1.65    0.28    0.15   -0.24    0.00    0.00      -0.74    0.25   -0.41
#  14    1.98   -1.71    0.24    0.95   -0.77    0.00    0.00       0.70    1.68   -1.35
#  15   -4.14   -2.06    0.38   -0.69    0.41    0.00    0.00      -6.09   -1.18    0.71
#  16    0.81   -2.46    0.46    1.26   -0.82    0.00    0.00      -0.74    1.97   -1.28
#  17   -1.10   -5.59    3.86   -1.19    0.46    0.00    0.00      -3.56   -1.75    0.68
#  18   -0.05   -1.86    0.50   -1.40   -0.20    0.00    0.00      -3.00   -2.97   -0.43
#  19    0.06   -3.04    1.78   -0.42   -0.23    0.00    0.00      -1.86   -0.83   -0.46
#  20    0.58   -3.20    2.87   -1.17   -0.21    0.00    0.00      -1.13   -2.58   -0.47
#  21    0.12   -1.78    0.53   -0.30   -0.18    0.00    0.00      -1.60   -0.77   -0.47
#  22    0.38   -2.11    0.95   -0.86   -0.16    0.00    0.00      -1.81   -2.36   -0.45
#  23   -0.20   -1.81    0.55    1.63   -0.29    0.00    0.00      -0.13    4.00   -0.72
#  24   -1.87   -0.48    0.13    0.97   -0.10    0.00    0.00      -1.35    2.16   -0.23
#  25   -2.54   -0.81    0.53    0.92   -0.13    0.00    0.00      -2.03    1.98   -0.28
#  26   -1.89   -0.47    0.12    0.79   -0.12    0.00    0.00      -1.58    1.80   -0.28
#  27   -2.75   -0.27    0.03    1.68   -0.08    0.00    0.00      -1.39    5.97   -0.28
#  28   -1.45   -0.28    0.03    1.76   -0.06    0.00    0.00       0.00    5.98   -0.22
#  29   -3.73   -0.83    0.78    1.96   -0.09    0.00    0.00      -1.91    4.62   -0.21
#  30   -3.03   -0.39    0.27    1.11   -0.06    0.00    0.00      -2.10    5.11   -0.28
#  31   -0.82   -0.40    0.13    0.52   -0.07    0.00    0.00      -0.64    1.66   -0.22
#  32   -0.65   -0.11    0.00    0.19   -0.03    0.00    0.00      -0.60    1.64   -0.28
#  33   -0.94   -0.33    0.09    0.41   -0.09    0.00    0.00      -0.86    1.33   -0.28
#  34   -1.13   -0.19    0.03    0.47   -0.03    0.00    0.00      -0.85    3.18   -0.21
#  35   -1.35   -0.20    0.02    1.22   -0.05    0.00    0.00      -0.36    6.35   -0.28
#  36   -0.44   -1.26    1.35    3.01   -0.10    0.00    0.00       2.55    6.54   -0.22
#  37   -0.63   -0.45    0.07    1.46   -0.11    0.00    0.00       0.34    3.51   -0.27
#  38    0.20   -0.92    0.64    0.35   -0.10    0.00    0.00       0.17    0.68   -0.20
#  39   -1.02   -1.15    2.84    0.81   -0.12    0.00    0.00       1.35    1.87   -0.28
#  40   -0.24   -0.22    0.03    0.90   -0.06    0.00    0.00       0.41    4.20   -0.28
#  41   -0.79   -0.62    0.68    1.87   -0.07    0.00    0.00       1.08    7.22   -0.27
@<TRIPOS>MOLECULE
E4697680
   41    42     0     0     0
SMALL
USER_CHARGES


@<TRIPOS>ATOM
      1 C1         21.4039   18.8999   59.8572 C.3       1            -0.1892
      2 C2         22.2887   19.1645   61.0771 C.3       1            -0.0181
      3 N1         23.4312   18.2413   61.0628 N.4       1            -0.3833
      4 H1         23.0954   17.2903   61.0908 H         1             0.4254
      5 C3         24.2131   18.4488   59.8367 C.3       1            -0.0142
      6 C4         25.4030   17.4872   59.8219 C.3       1            -0.1910
      7 C5         24.2806   18.4955   62.2342 C.3       1            -0.0381
      8 C6         23.4663   18.2794   63.5113 C.3       1             0.0942
      9 N2         22.9789   16.8985   63.5520 N.am      1            -0.5433
     10 C7         21.6804   16.5539   63.5895 C.2       1             0.5625
     11 O1         20.7362   17.3195   63.5946 O.2       1            -0.4530
     12 C8         21.6050   15.0734   63.6227 C.2       1            -0.0197
     13 C9         20.4647   14.2877   63.6652 C.2       1             0.1513
     14 C10        19.1717   14.9027   63.6820 C.1       1             0.2282
     15 N3         18.1458   15.3907   63.6953 N.1       1            -0.3283
     16 C11        20.5792   12.8605   63.6925 C.1       1             0.2357
     17 N4         20.6700   11.7284   63.7141 N.1       1            -0.3342
     18 C12        23.0081   14.6191   63.5997 C.ar      1            -0.1298
     19 C13        23.6033   13.3586   63.6131 C.ar      1            -0.0333
     20 C14        24.9785   13.2516   63.5837 C.ar      1            -0.1269
     21 C15        25.7633   14.3924   63.5412 C.ar      1            -0.0525
     22 C16        25.1841   15.6463   63.5281 C.ar      1            -0.1370
     23 C17        23.8009   15.7766   63.5507 C.ar      1             0.1534
     24 H2         20.5560   19.5849   59.8679 H         1             0.0821
     25 H3         21.9839   19.0539   58.9473 H         1             0.0821
     26 H4         21.0412   17.8725   59.8874 H         1             0.1084
     27 H5         22.6513   20.1919   61.0469 H         1             0.1327
     28 H6         21.7085   19.0106   61.9870 H         1             0.1303
     29 H7         23.5828   18.2604   58.9676 H         1             0.1368
     30 H8         24.5757   19.4762   59.8064 H         1             0.1306
     31 H9         25.9832   17.6412   58.9119 H         1             0.0787
     32 H10        26.0334   17.6758   60.6909 H         1             0.0829
     33 H11        25.0404   16.4598   59.8520 H         1             0.1085
     34 H12        25.1283   17.8105   62.2236 H         1             0.1398
     35 H13        24.6432   19.5230   62.2039 H         1             0.1392
     36 H14        24.0965   18.4682   64.3803 H         1             0.1155
     37 H15        22.6185   18.9644   63.5217 H         1             0.1166
     38 H16        22.9906   12.4698   63.6466 H         1             0.1354
     39 H17        25.4438   12.2771   63.5943 H         1             0.1448
     40 H18        26.8391   14.3005   63.5185 H         1             0.1446
     41 H19        25.8078   16.5274   63.4956 H         1             0.1318
@<TRIPOS>BOND
     1    1    2 1 
     2    1   24 1 
     3    1   25 1 
     4    1   26 1 
     5    2    3 1 
     6    2   27 1 
     7    2   28 1 
     8    3    4 1 
     9    3    5 1 
    10    3    7 1 
    11    5    6 1 
    12    5   29 1 
    13    5   30 1 
    14    6   31 1 
    15    6   32 1 
    16    6   33 1 
    17    7    8 1 
    18    7   34 1 
    19    7   35 1 
    20    8    9 1 
    21    8   36 1 
    22    8   37 1 
    23    9   23 1 
    24    9   10 am
    25   10   11 2 
    26   10   12 1 
    27   12   13 2 
    28   12   18 1 
    29   13   14 1 
    30   13   16 1 
    31   14   15 3 
    32   16   17 3 
    33   18   23 ar
    34   18   19 ar
    35   19   20 ar
    36   19   38 1 
    37   20   21 ar
    38   20   39 1 
    39   21   22 ar
    40   21   40 1 
    41   22   23 ar
    42   22   41 1 
##########                 Name:            E36931700
##########          Protonation:                   98
##########               SMILES:   c1cnn(c1)CC[NH2+]C[C@@H](COc2ccc(cc2)F)O
##########            Long Name:   [(2S)-3-(4-fluorophenoxy)-2-hydroxy-propyl]-(2-pyrazol-1-ylethyl)ammonium
##########          FlexRecCode: 1
##########               Number:                  680
##########   Ligand Source File: /raidb/db2/rgc/leads-emolecules-300/leads-lt300-emolecules-1i-0000324.db2.gz
##########           GlobalRank: 2575
##########                 Rank:                    1
##########               Setnum:                   48
##########             Matchnum:                 1082
##########                Cloud:                    1
##########        Electrostatic:           -26.465067
##########        Van der Waals:           -23.855835
##########  Ligand Polar Desolv:            10.550013
########## Ligand Apolar Desolv:            -1.298002
##########      Internal Energy:             0.000000
##########      Receptor Energy: 0.0
########## Receptor Desolvation:             0.000000
########## Receptor Hydrophobic:             0.000000
##########         Total Energy: -41.07
##########        Ligand Charge:             1.000000
##########            Arbitrary:    +999.9990
##########     heavy atom count:   20
##########           pose count:    1
##########        Ligand Energy:             0.000000
# num electro vdwattr vdwrepu polsolv apolsol rdesolv rhydroe totalscore fullpol fullapo
#   1    4.42   -4.00    2.63   -7.49    0.74    0.00    0.00      -3.69  -15.23    1.51
#   2   -0.81   -0.92    0.10    1.23   -0.06    0.00    0.00      -0.46    2.92   -0.15
#   3    0.55   -0.66    0.05   -0.07   -0.14    0.00    0.00      -0.27   -0.18   -0.38
#   4   10.17   -1.35    0.44   -6.39    0.27    0.00    0.00       3.14  -17.37    0.73
#   5  -11.09   -0.03    0.00    6.42    0.20    0.00    0.00      -4.49   18.49    0.57
#   6   -9.79   -0.09    0.02    5.37    0.16    0.00    0.00      -4.33   17.17    0.52
#   7    0.40   -0.79    0.16    0.19   -0.13    0.00    0.00      -0.16    0.64   -0.42
#   8   -1.82   -1.04    0.28    0.66   -0.16    0.00    0.00      -2.09    2.05   -0.51
#   9    2.58   -0.98    0.11   -2.09    0.33    0.00    0.00      -0.05   -7.01    1.11
#  10   -0.27   -1.02    0.10    0.45   -0.34    0.00    0.00      -1.08    1.31   -0.99
#  11    0.68   -1.38    0.29   -1.52   -0.19    0.00    0.00      -2.12   -4.16   -0.51
#  12   -0.10   -1.31    0.44   -0.04   -0.32    0.00    0.00      -1.32   -0.12   -1.06
#  13    1.33   -0.93    0.14   -1.18    0.33    0.00    0.00      -0.31   -4.65    1.28
#  14   -0.10   -0.83    0.07   -0.23   -0.03    0.00    0.00      -1.12   -0.55   -0.08
#  15   -1.06   -1.69    0.50   -2.40    0.36    0.00    0.00      -4.29   -5.26    0.79
#  16    0.44   -1.68    0.41    0.76   -0.14    0.00    0.00      -0.22    1.68   -0.31
#  17   -1.24   -1.58    0.23   -1.20   -0.23    0.00    0.00      -4.01   -2.22   -0.42
#  18   -0.51   -1.92    0.31   -0.71   -0.29    0.00    0.00      -3.12   -1.17   -0.47
#  19    0.29   -2.58    0.54   -0.16   -0.22    0.00    0.00      -2.12   -0.25   -0.34
#  20   -0.64   -3.78    3.40   -0.30   -0.33    0.00    0.00      -1.66   -0.44   -0.48
#  21   -0.24   -2.40    0.62   -0.51   -0.27    0.00    0.00      -2.80   -0.90   -0.47
#  22   -0.16   -1.77    0.43   -0.68   -0.22    0.00    0.00      -2.40   -1.43   -0.46
#  23   -5.87   -0.21    0.05    5.72    0.61    0.00    0.00       0.31   11.47    1.22
#  24   -1.56   -0.25    0.03    1.06   -0.07    0.00    0.00      -0.80    3.97   -0.28
#  25   -1.37   -0.22    0.02    1.28   -0.06    0.00    0.00      -0.35    6.07   -0.28
#  26   -2.30   -0.16    0.01    1.19   -0.05    0.00    0.00      -1.31    6.90   -0.28
#  27   -1.46   -0.12    0.01    0.51   -0.04    0.00    0.00      -1.11    3.76   -0.28
#  28   -3.35   -0.55    0.82    1.12   -0.06    0.00    0.00      -2.01    5.10   -0.28
#  29   -2.56   -1.06    1.59    2.26   -0.10    0.00    0.00       0.12    6.04   -0.28
#  30   -1.53   -0.26    0.05    0.80   -0.06    0.00    0.00      -1.01    3.48   -0.28
#  31   -0.92   -0.22    0.03    1.03   -0.06    0.00    0.00      -0.14    5.11   -0.28
#  32   -0.29   -0.43    0.13    0.50   -0.10    0.00    0.00      -0.19    1.42   -0.28
#  33    0.23   -0.28    0.09    0.37   -0.06    0.00    0.00       0.36    1.85   -0.28
#  34   -0.44   -0.21    0.03    0.58   -0.05    0.00    0.00      -0.08    3.01   -0.26
#  35   -0.24   -0.35    0.05    0.86   -0.09    0.00    0.00       0.23    2.57   -0.26
#  36    1.61   -0.30    0.03    1.47   -0.08    0.00    0.00       2.73    4.05   -0.22
#  37    0.61   -0.61    0.44    0.82   -0.14    0.00    0.00       1.12    1.63   -0.28
#  38    0.00   -0.75    0.42    0.43   -0.14    0.00    0.00      -0.04    0.88   -0.28
#  39   -0.05   -0.30    0.05    0.46   -0.08    0.00    0.00       0.07    1.56   -0.28
@<TRIPOS>MOLECULE
E36931700
   39    40     0     0     0
SMALL
USER_CHARGES


@<TRIPOS>ATOM
      1 O1         21.9809   19.7044   63.4084 O.3       1            -0.5433
      2 C1         22.3518   18.8133   62.3545 C.3       1             0.0864
      3 C2         23.5922   19.3552   61.6414 C.3       1            -0.0403
      4 N1         23.2951   20.6799   61.0805 N.4       1            -0.4998
      5 H1         22.5348   20.6035   60.4216 H         1             0.4322
      6 H2         23.0332   21.3091   61.8247 H         1             0.4364
      7 C3         24.4860   21.2002   60.3959 C.3       1            -0.0228
      8 C4         24.1767   22.5800   59.8119 C.3       1             0.1195
      9 N2         25.3645   23.0990   59.1290 N.pl3     1            -0.3960
     10 C5         25.4629   24.2897   58.5018 C.2       1             0.0583
     11 C6         26.7167   24.3907   58.0029 C.2       1            -0.2536
     12 C7         27.4082   23.2215   58.3367 C.2       1             0.0714
     13 N3         26.6004   22.4489   59.0169 N.2       1            -0.3033
     14 C8         22.6613   17.4335   62.9386 C.3       1             0.0277
     15 O2         21.5025   16.9275   63.6048 O.3       1            -0.2989
     16 C9         21.3447   15.5774   63.6286 C.ar      1             0.1075
     17 C10        20.0715   15.0277   63.6549 C.ar      1            -0.1798
     18 C11        19.9128   13.6555   63.6792 C.ar      1            -0.1138
     19 C12        21.0237   12.8292   63.6777 C.ar      1             0.0744
     20 F1         20.8669   11.4876   63.7019 F         1            -0.1332
     21 C13        22.2952   13.3767   63.6509 C.ar      1            -0.1102
     22 C14        22.4568   14.7484   63.6208 C.ar      1            -0.1133
     23 H3         21.7704   20.6000   63.1103 H         1             0.3915
     24 H4         21.5304   18.7307   61.6427 H         1             0.1375
     25 H5         24.4135   19.4377   62.3531 H         1             0.1424
     26 H6         23.8751   18.6755   60.8375 H         1             0.1488
     27 H7         25.3074   21.2828   61.1078 H         1             0.1465
     28 H8         24.7690   20.5205   59.5921 H         1             0.1390
     29 H9         23.3554   22.4974   59.0999 H         1             0.1171
     30 H10        23.8938   23.2597   60.6156 H         1             0.1055
     31 H11        24.6811   25.0294   58.4135 H         1             0.1811
     32 H12        27.1133   25.2262   57.4452 H         1             0.1587
     33 H13        28.4333   22.9974   58.0814 H         1             0.1934
     34 H14        22.9440   16.7538   62.1348 H         1             0.0834
     35 H15        23.4824   17.5161   63.6504 H         1             0.0787
     36 H16        19.2048   15.6720   63.6569 H         1             0.1341
     37 H17        18.9215   13.2272   63.6997 H         1             0.1426
     38 H18        23.1609   12.7310   63.6494 H         1             0.1491
     39 H19        23.4486   15.1751   63.5958 H         1             0.1448
@<TRIPOS>BOND
     1    1    2 1 
     2    1   23 1 
     3    2    3 1 
     4    2   14 1 
     5    2   24 1 
     6    3    4 1 
     7    3   25 1 
     8    3   26 1 
     9    4    5 1 
    10    4    6 1 
    11    4    7 1 
    12    7    8 1 
    13    7   27 1 
    14    7   28 1 
    15    8    9 1 
    16    8   29 1 
    17    8   30 1 
    18    9   13 1 
    19    9   10 1 
    20   10   11 2 
    21   10   31 1 
    22   11   12 1 
    23   11   32 1 
    24   12   13 2 
    25   12   33 1 
    26   14   15 1 
    27   14   34 1 
    28   14   35 1 
    29   15   16 1 
    30   16   22 ar
    31   16   17 ar
    32   17   18 ar
    33   17   36 1 
    34   18   19 ar
    35   18   37 1 
    36   19   20 1 
    37   19   21 ar
    38   21   22 ar
    39   21   38 1 
    40   22   39 1 
##########                 Name:            E46355390
##########          Protonation:                   34
##########               SMILES:   [H]/N=C(/c1cccc(c1)C)\NOC(=O)/C=C/c2ccccc2
##########            Long Name:   [(3-methylbenzenecarboximidoyl)amino]
##########          FlexRecCode: 1
##########               Number:                  238
##########   Ligand Source File: /raidb/db2/rgc/leads-emolecules-300/leads-lt300-emolecules-1j-0000090.db2.gz
##########           GlobalRank: 2575
##########                 Rank:                    1
##########               Setnum:                  277
##########             Matchnum:                 5904
##########                Cloud:                    1
##########        Electrostatic:            -8.033256
##########        Van der Waals:           -31.975950
##########  Ligand Polar Desolv:             4.106381
########## Ligand Apolar Desolv:            -5.163726
##########      Internal Energy:             0.000000
##########      Receptor Energy: 0.0
########## Receptor Desolvation:             0.000000
########## Receptor Hydrophobic:             0.000000
##########         Total Energy: -41.07
##########        Ligand Charge:             0.000000
##########            Arbitrary:    +999.9990
##########     heavy atom count:   21
##########           pose count:    1
##########        Ligand Energy:             0.000000
# num electro vdwattr vdwrepu polsolv apolsol rdesolv rhydroe totalscore fullpol fullapo
#   1   -1.27   -1.75    0.55   -0.09   -0.13    0.00    0.00      -2.69   -0.14   -0.20
#   2   -1.14   -2.61    1.19    0.06   -0.25    0.00    0.00      -2.76    0.09   -0.40
#   3   -0.82   -2.89    0.81   -0.06   -0.29    0.00    0.00      -3.26   -0.10   -0.45
#   4   -0.36   -3.91    1.34   -0.08   -0.32    0.00    0.00      -3.32   -0.12   -0.47
#   5   -0.60   -3.03    0.68    0.06   -0.29    0.00    0.00      -3.17    0.10   -0.44
#   6   -0.56   -2.16    0.41    0.18   -0.26    0.00    0.00      -2.39    0.28   -0.41
#   7   -0.85   -2.55    0.84    0.16   -0.26    0.00    0.00      -2.67    0.27   -0.43
#   8    5.19   -1.86    0.32   -1.36   -1.27    0.00    0.00       1.02   -2.37   -2.20
#   9  -11.85   -2.37    1.09    2.64    0.69    0.00    0.00      -9.81    4.97    1.31
#  10   -4.01   -2.27    0.82    1.44    0.36    0.00    0.00      -3.66    2.50    0.63
#  11   -0.65   -2.25    1.29    0.27   -0.31    0.00    0.00      -1.65    0.51   -0.59
#  12    1.83   -2.72    1.45   -0.90   -0.10    0.00    0.00      -0.43   -1.60   -0.17
#  13   -2.75   -4.01    2.46    1.82   -0.23    0.00    0.00      -2.71    2.89   -0.37
#  14    0.05   -2.22    0.74    0.03   -0.22    0.00    0.00      -1.63    0.06   -0.45
#  15   -0.04   -1.74    0.89    0.00   -0.19    0.00    0.00      -1.07    0.01   -0.44
#  16    0.44   -1.32    0.31   -0.02   -0.16    0.00    0.00      -0.75   -0.05   -0.41
#  17    0.37   -1.08    0.10   -0.05   -0.17    0.00    0.00      -0.83   -0.12   -0.44
#  18    0.31   -0.82    0.05   -0.07   -0.15    0.00    0.00      -0.68   -0.23   -0.47
#  19    0.23   -1.09    0.23   -0.06   -0.14    0.00    0.00      -0.83   -0.19   -0.47
#  20    0.74   -1.63    0.43   -0.08   -0.17    0.00    0.00      -0.72   -0.23   -0.47
#  21    0.60   -1.94    1.13   -0.04   -0.17    0.00    0.00      -0.42   -0.11   -0.45
#  22    0.75   -0.38    0.06    0.07   -0.14    0.00    0.00       0.36    0.15   -0.28
#  23    0.72   -1.00    1.08    0.14   -0.15    0.00    0.00       0.79    0.26   -0.28
#  24    0.75   -0.68    0.43    0.02   -0.14    0.00    0.00       0.39    0.05   -0.28
#  25    0.98   -0.58    0.15    0.33   -0.15    0.00    0.00       0.72    0.62   -0.28
#  26   -0.48   -1.39    1.35    0.44   -0.19    0.00    0.00      -0.27    0.66   -0.28
#  27    0.51   -0.87    0.46    0.07   -0.14    0.00    0.00       0.03    0.11   -0.22
#  28    2.08   -0.53    0.10   -0.30   -0.14    0.00    0.00       1.22   -0.56   -0.27
#  29    3.64   -0.03    0.00   -0.73    0.19    0.00    0.00       3.08   -2.04    0.53
#  30    1.77   -0.05    0.00   -0.59    0.17    0.00    0.00       1.31   -1.25    0.37
#  31   -0.37   -0.55    0.23    0.17   -0.09    0.00    0.00      -0.62    0.40   -0.21
#  32   -0.18   -0.35    0.23    0.01   -0.07    0.00    0.00      -0.35    0.02   -0.26
#  33   -0.39   -0.27    0.03    0.12   -0.05    0.00    0.00      -0.56    0.47   -0.21
#  34   -0.16   -0.12    0.00    0.07   -0.04    0.00    0.00      -0.24    0.56   -0.28
#  35   -0.08   -0.19    0.04    0.10   -0.05    0.00    0.00      -0.18    0.61   -0.28
#  36   -1.16   -0.48    0.15    0.20   -0.10    0.00    0.00      -1.38    0.57   -0.28
#  37   -1.25   -0.73    0.99    0.13   -0.09    0.00    0.00      -0.94    0.42   -0.28
@<TRIPOS>MOLECULE
E46355390
   37    38     0     0     0
SMALL
USER_CHARGES


@<TRIPOS>ATOM
      1 C1         13.9032   15.9754   64.5531 C.3       1            -0.1166
      2 C2         15.1634   15.5281   65.2480 C.ar      1            -0.0895
      3 C3         15.1046   15.0538   66.5464 C.ar      1            -0.0993
      4 C4         16.2570   14.6416   67.1908 C.ar      1            -0.1157
      5 C5         17.4732   14.7013   66.5411 C.ar      1            -0.1053
      6 C6         17.5387   15.1785   65.2327 C.ar      1            -0.0483
      7 C7         16.3726   15.5874   64.5863 C.ar      1            -0.0589
      8 C8         18.8410   15.2451   64.5299 C.2       1             0.4697
      9 N1         19.0468   16.1604   63.6234 N.2       1            -0.7325
     10 N2         19.8303   14.3445   64.8323 N.pl3     1            -0.6119
     11 O1         21.1903   14.7170   64.7031 O.3       1            -0.1156
     12 C9         22.0110   13.6951   64.3980 C.2       1             0.4870
     13 O2         21.7447   12.5683   64.7724 O.2       1            -0.5012
     14 C10        23.2235   13.9390   63.6162 C.2       1            -0.2072
     15 C11        23.2549   14.9424   62.7157 C.2       1             0.0189
     16 C12        24.4748   15.1876   61.9293 C.ar      1            -0.0920
     17 C13        25.7069   14.6962   62.3716 C.ar      1            -0.0931
     18 C14        26.8451   14.9300   61.6293 C.ar      1            -0.1233
     19 C15        26.7702   15.6493   60.4492 C.ar      1            -0.0980
     20 C16        25.5545   16.1390   60.0047 C.ar      1            -0.1240
     21 C17        24.4064   15.9085   60.7328 C.ar      1            -0.0857
     22 H1         13.0548   15.8567   65.2271 H         1             0.0737
     23 H2         13.9974   17.0235   64.2688 H         1             0.0690
     24 H3         13.7457   15.3696   63.6607 H         1             0.0704
     25 H4         14.1552   15.0055   67.0589 H         1             0.1281
     26 H5         16.2050   14.2725   68.2044 H         1             0.1308
     27 H6         18.3724   14.3795   67.0453 H         1             0.1222
     28 H7         16.4166   15.9537   63.5712 H         1             0.1433
     29 H8         19.8995   16.2040   63.1631 H         1             0.3462
     30 H9         19.5983   13.4526   65.1348 H         1             0.4214
     31 H10        24.0935   13.3153   63.7601 H         1             0.1471
     32 H11        22.3850   15.5662   62.5718 H         1             0.1417
     33 H12        25.7669   14.1351   63.2925 H         1             0.1303
     34 H13        27.7975   14.5514   61.9698 H         1             0.1296
     35 H14        27.6653   15.8296   59.8723 H         1             0.1279
     36 H15        25.5041   16.6993   59.0828 H         1             0.1298
     37 H16        23.4577   16.2872   60.3822 H         1             0.1309
@<TRIPOS>BOND
     1    1    2 1 
     2    1   22 1 
     3    1   23 1 
     4    1   24 1 
     5    2    7 ar
     6    2    3 ar
     7    3    4 ar
     8    3   25 1 
     9    4    5 ar
    10    4   26 1 
    11    5    6 ar
    12    5   27 1 
    13    6    7 ar
    14    6    8 1 
    15    7   28 1 
    16    8    9 2 
    17    8   10 1 
    18    9   29 1 
    19   10   11 1 
    20   10   30 1 
    21   11   12 1 
    22   12   13 2 
    23   12   14 1 
    24   14   15 2 
    25   14   31 1 
    26   15   16 1 
    27   15   32 1 
    28   16   21 ar
    29   16   17 ar
    30   17   18 ar
    31   17   33 1 
    32   18   19 ar
    33   18   34 1 
    34   19   20 ar
    35   19   35 1 
    36   20   21 ar
    37   20   36 1 
    38   21   37 1 
##########                 Name:            E36025602
##########          Protonation:                   88
##########               SMILES:   c1ccc(cc1)c2cc(=O)[nH]c(n2)N3CCC[C@@H](C3)[NH3+]
##########            Long Name:   [(3S)-1-(6-oxo-4-phenyl-1H-pyrimidin-2-yl)-3-piperidyl]ammonium
##########          FlexRecCode: 1
##########               Number:                  165
##########   Ligand Source File: /raidb/db2/rgc/leads-emolecules-300/leads-emolecules-lt300-1f-0000023.db2.gz
##########           GlobalRank: 2602
##########                 Rank:                    1
##########               Setnum:                    4
##########             Matchnum:                 3597
##########                Cloud:                    1
##########        Electrostatic:           -22.348339
##########        Van der Waals:           -29.368906
##########  Ligand Polar Desolv:            14.080979
########## Ligand Apolar Desolv:            -3.415255
##########      Internal Energy:             0.000000
##########      Receptor Energy: 0.0
########## Receptor Desolvation:             0.000000
########## Receptor Hydrophobic:             0.000000
##########         Total Energy: -41.05
##########        Ligand Charge:             1.000000
##########            Arbitrary:    +999.9990
##########     heavy atom count:   20
##########           pose count:    1
##########        Ligand Energy:             0.000000
# num electro vdwattr vdwrepu polsolv apolsol rdesolv rhydroe totalscore fullpol fullapo
#   1   10.57   -1.08    0.10  -11.47    0.34    0.00    0.00      -1.54  -25.02    0.74
#   2   -7.48   -0.03    0.00    6.49    0.18    0.00    0.00      -0.83   20.38    0.58
#   3   -7.23   -0.02    0.00    7.32    0.21    0.00    0.00       0.28   20.28    0.58
#   4  -10.00   -0.02    0.00    6.20    0.18    0.00    0.00      -3.64   20.54    0.58
#   5   -0.08   -0.71    0.06    0.97   -0.13    0.00    0.00       0.11    2.27   -0.30
#   6    1.27   -0.61    0.04   -1.54   -0.08    0.00    0.00      -0.92   -4.38   -0.23
#   7    0.68   -0.81    0.12   -1.08   -0.09    0.00    0.00      -1.18   -3.17   -0.26
#   8   -0.02   -1.79    0.99    0.95   -0.21    0.00    0.00      -0.08    2.20   -0.48
#   9   -1.19   -1.86    0.46   -5.36    0.74    0.00    0.00      -7.20  -11.99    1.66
#  10   -0.03   -1.21    0.35    0.64   -0.20    0.00    0.00      -0.44    1.43   -0.44
#  11    3.31   -2.08    0.95    4.42   -2.18    0.00    0.00       4.41    9.44   -4.67
#  12   -5.85   -2.28    0.99   -3.07    0.78    0.00    0.00      -9.44   -6.03    1.53
#  13    2.31   -1.92    0.38    1.02   -0.42    0.00    0.00       1.36    1.78   -0.74
#  14   -1.36   -2.83    1.81   -1.05   -0.27    0.00    0.00      -3.70   -1.73   -0.44
#  15    2.37   -2.78    1.42    1.66   -0.41    0.00    0.00       2.26    2.65   -0.65
#  16   -3.12   -4.77    3.00   -0.14    0.30    0.00    0.00      -4.72   -0.21    0.46
#  17   -2.40   -2.01    0.48   -4.42    0.92    0.00    0.00      -7.43   -8.07    1.67
#  18   -0.81   -2.16    0.53   -0.34   -0.26    0.00    0.00      -3.03   -0.54   -0.41
#  19   -0.59   -2.72    0.62   -0.34   -0.28    0.00    0.00      -3.32   -0.53   -0.44
#  20   -1.03   -2.87    0.79   -0.52   -0.30    0.00    0.00      -3.93   -0.80   -0.47
#  21   -1.18   -2.50    0.90   -0.47   -0.29    0.00    0.00      -3.55   -0.75   -0.47
#  22   -1.80   -2.98    1.13   -0.61   -0.28    0.00    0.00      -4.54   -1.02   -0.47
#  23   -1.01   -2.62    0.80   -0.28   -0.27    0.00    0.00      -3.38   -0.47   -0.46
#  24   -1.38   -0.36    0.18    1.33   -0.08    0.00    0.00      -0.30    4.93   -0.28
#  25   -1.14   -0.13    0.00    0.52   -0.03    0.00    0.00      -0.78    4.17   -0.28
#  26   -0.77   -0.27    0.03    1.11   -0.07    0.00    0.00       0.02    4.16   -0.28
#  27   -0.42   -0.19    0.02    0.19   -0.05    0.00    0.00      -0.45    1.01   -0.28
#  28   -0.67   -0.37    0.19    0.37   -0.06    0.00    0.00      -0.55    1.74   -0.28
#  29    0.22   -0.82    0.96    0.25   -0.09    0.00    0.00       0.52    0.66   -0.24
#  30    0.05   -1.12    1.26    1.14   -0.13    0.00    0.00       1.19    2.39   -0.28
#  31   -0.16   -0.61    0.34    2.45   -0.12    0.00    0.00       1.89    5.61   -0.28
#  32    0.60   -0.57    0.66    1.30   -0.07    0.00    0.00       1.92    3.77   -0.20
#  33    0.07   -0.86    0.54    0.04   -0.12    0.00    0.00      -0.33    0.07   -0.22
#  34    0.71   -0.03    0.00    3.29    0.17    0.00    0.00       4.14    8.20    0.42
#  35    0.37   -0.68    0.16    0.34   -0.13    0.00    0.00       0.05    0.55   -0.22
#  36    0.58   -0.70    0.18    0.55   -0.16    0.00    0.00       0.45    0.95   -0.28
#  37    1.53   -0.37    0.04    0.59   -0.13    0.00    0.00       1.66    1.23   -0.28
#  38    0.98   -1.01    1.28    0.89   -0.16    0.00    0.00       1.99    1.58   -0.28
#  39    1.76   -0.61    0.22    0.75   -0.14    0.00    0.00       1.99    1.46   -0.27
@<TRIPOS>MOLECULE
E36025602
   39    41     0     0     0
SMALL
USER_CHARGES


@<TRIPOS>ATOM
      1 N1         21.9272   19.1652   61.0563 N.4       1            -0.6328
      2 H1         22.0463   19.9487   61.6808 H         1             0.4364
      3 H2         20.9543   19.0831   60.8014 H         1             0.4389
      4 H3         22.4814   19.3099   60.2258 H         1             0.4435
      5 C1         22.3632   17.9333   61.7275 C.3       1             0.0087
      6 C2         23.8375   18.0588   62.1180 C.3       1            -0.1439
      7 C3         24.3017   16.7635   62.7879 C.3       1            -0.1339
      8 C4         23.4825   16.5300   64.0611 C.3       1             0.1181
      9 N2         22.0546   16.5526   63.7157 N.pl3     1            -0.5910
     10 C5         21.5221   17.7132   62.9888 C.3       1             0.0954
     11 C6         21.2358   15.5117   64.0642 C.2       1             0.6346
     12 N3         19.9635   15.7462   64.3054 N.2       1            -0.5708
     13 C7         19.1281   14.7565   64.6493 C.2       1             0.2700
     14 C8         19.6062   13.4589   64.7548 C.2       1            -0.3238
     15 C9         20.9641   13.2186   64.4957 C.2       1             0.5425
     16 O1         21.4217   12.0903   64.5779 O.2       1            -0.5282
     17 N4         21.7540   14.2561   64.1482 N.am      1            -0.6558
     18 C10        17.6998   15.0472   64.9161 C.ar      1            -0.0728
     19 C11        17.1508   14.7693   66.1675 C.ar      1            -0.0841
     20 C12        15.8202   15.0426   66.4101 C.ar      1            -0.1234
     21 C13        15.0311   15.5909   65.4148 C.ar      1            -0.0925
     22 C14        15.5701   15.8689   64.1714 C.ar      1            -0.1296
     23 C15        16.9009   15.6052   63.9187 C.ar      1            -0.0698
     24 H4         22.2358   17.0869   61.0528 H         1             0.1496
     25 H5         24.4356   18.2403   61.2249 H         1             0.0976
     26 H6         23.9600   18.8906   62.8118 H         1             0.0947
     27 H7         24.1565   15.9277   62.1034 H         1             0.0838
     28 H8         25.3578   16.8449   63.0446 H         1             0.1071
     29 H9         23.7397   15.5608   64.4885 H         1             0.1236
     30 H10        23.6965   17.3182   64.7829 H         1             0.0837
     31 H11        21.5761   18.5978   63.6231 H         1             0.1055
     32 H12        20.4857   17.5245   62.7085 H         1             0.0992
     33 H13        18.9466   12.6496   65.0311 H         1             0.1609
     34 H14        22.6942   14.1073   63.9617 H         1             0.4035
     35 H15        17.7657   14.3406   66.9450 H         1             0.1315
     36 H16        15.3938   14.8278   67.3789 H         1             0.1321
     37 H17        13.9900   15.8024   65.6092 H         1             0.1293
     38 H18        14.9492   16.2969   63.3983 H         1             0.1294
     39 H19        17.3216   15.8264   62.9489 H         1             0.1330
@<TRIPOS>BOND
     1    1    2 1 
     2    1    3 1 
     3    1    4 1 
     4    1    5 1 
     5    5   10 1 
     6    5    6 1 
     7    5   24 1 
     8    6    7 1 
     9    6   25 1 
    10    6   26 1 
    11    7    8 1 
    12    7   27 1 
    13    7   28 1 
    14    8    9 1 
    15    8   29 1 
    16    8   30 1 
    17    9   10 1 
    18    9   11 1 
    19   10   31 1 
    20   10   32 1 
    21   11   17 1 
    22   11   12 2 
    23   12   13 1 
    24   13   14 2 
    25   13   18 1 
    26   14   15 1 
    27   14   33 1 
    28   15   16 2 
    29   15   17 am
    30   17   34 1 
    31   18   23 ar
    32   18   19 ar
    33   19   20 ar
    34   19   35 1 
    35   20   21 ar
    36   20   36 1 
    37   21   22 ar
    38   21   37 1 
    39   22   23 ar
    40   22   38 1 
    41   23   39 1 
##########                 Name:             E1442799
##########          Protonation:                   16
##########               SMILES:   c1ccc2c(c1)c(ncn2)Sc3[nH]c4c(n3)c(ncn4)N
##########            Long Name:   8-quinazolin-4-ylsulfanyl-9H-purin-6-amine
##########          FlexRecCode: 1
##########               Number:                  306
##########   Ligand Source File: /raidb/db2/rgc/leads-emolecules-300/leads-emolecules-2g-0000278.db2.gz
##########           GlobalRank: 2610
##########                 Rank:                    1
##########               Setnum:                   30
##########             Matchnum:                 1752
##########                Cloud:                    1
##########        Electrostatic:            -9.864882
##########        Van der Waals:           -34.776585
##########  Ligand Polar Desolv:             6.480928
########## Ligand Apolar Desolv:            -2.874482
##########      Internal Energy:             0.000000
##########      Receptor Energy: 0.0
########## Receptor Desolvation:             0.000000
########## Receptor Hydrophobic:             0.000000
##########         Total Energy: -41.04
##########        Ligand Charge:             0.000000
##########            Arbitrary:    +999.9990
##########     heavy atom count:   21
##########           pose count:    1
##########        Ligand Energy:             0.000000
# num electro vdwattr vdwrepu polsolv apolsol rdesolv rhydroe totalscore fullpol fullapo
#   1   -0.68   -4.51    1.66    0.51    0.62    0.00    0.00      -2.40    0.75    0.91
#   2    4.05   -2.96    0.96   -1.33   -1.37    0.00    0.00      -0.65   -2.09   -2.15
#   3   -1.37   -2.70    1.25    0.52   -0.49    0.00    0.00      -2.80    0.81   -0.77
#   4   -5.01   -2.17    0.47    1.33    1.07    0.00    0.00      -4.31    2.15    1.73
#   5    3.02   -2.67    0.79   -0.31   -1.22    0.00    0.00      -0.40   -0.53   -2.09
#   6   -6.56   -4.28    2.23    0.64    0.74    0.00    0.00      -7.24    1.05    1.21
#   7    4.03   -3.17    1.66   -0.83   -1.39    0.00    0.00       0.30   -1.39   -2.33
#   8   -5.87   -2.83    1.03    1.57    1.27    0.00    0.00      -4.83    2.58    2.09
#   9    3.76   -2.21    0.63   -0.63   -2.07    0.00    0.00      -0.52   -0.96   -3.17
#  10   -5.13   -2.72    0.69    1.52    1.36    0.00    0.00      -4.28    2.32    2.08
#  11    2.16   -4.55    2.79    0.08   -0.40    0.00    0.00       0.08    0.15   -0.75
#  12    1.01   -1.77    0.44   -0.22   -0.35    0.00    0.00      -0.88   -0.38   -0.61
#  13   -2.20   -2.23    0.60    1.39    0.95    0.00    0.00      -1.49    2.29    1.57
#  14    0.79   -3.07    1.05   -0.78   -2.06    0.00    0.00      -4.07   -1.19   -3.16
#  15   -2.34   -3.11    0.93    1.74    1.31    0.00    0.00      -1.48    2.74    2.06
#  16    0.38   -2.02    0.48   -0.24   -0.40    0.00    0.00      -1.80   -0.44   -0.73
#  17    0.07   -2.28    0.86    0.03   -0.23    0.00    0.00      -1.55    0.06   -0.47
#  18    0.18   -1.47    0.26   -0.08   -0.19    0.00    0.00      -1.31   -0.20   -0.47
#  19    0.34   -1.27    0.27   -0.16   -0.18    0.00    0.00      -0.99   -0.42   -0.47
#  20    0.03   -1.76    1.21   -0.08   -0.18    0.00    0.00      -0.78   -0.20   -0.44
#  21   -0.37   -1.90    1.22    0.16   -0.21    0.00    0.00      -1.09    0.31   -0.40
#  22   -2.17   -0.13    0.02    0.36    0.40    0.00    0.00      -1.53    0.53    0.59
#  23    0.36   -0.06    0.00   -0.08    0.37    0.00    0.00       0.60   -0.13    0.59
#  24    2.14   -0.13    0.01    0.45    0.38    0.00    0.00       2.85    0.70    0.59
#  25    1.84   -0.38    0.06    0.24   -0.13    0.00    0.00       1.62    0.50   -0.28
#  26   -0.72   -1.37    2.32   -0.14   -0.17    0.00    0.00      -0.08   -0.22   -0.28
#  27   -0.23   -0.64    0.33    0.01   -0.12    0.00    0.00      -0.65    0.02   -0.28
#  28   -0.43   -0.24    0.03    0.30   -0.06    0.00    0.00      -0.41    1.29   -0.28
#  29   -0.86   -0.17    0.01    0.28   -0.05    0.00    0.00      -0.79    1.55   -0.28
#  30   -0.11   -0.28    0.06    0.23   -0.07    0.00    0.00      -0.16    0.81   -0.24
@<TRIPOS>MOLECULE
E1442799
   30    33     0     0     0
SMALL
USER_CHARGES


@<TRIPOS>ATOM
      1 N1         16.1381   14.4659   67.4724 N.pl3     1            -0.8133
      2 C1         15.3967   14.9257   66.3962 C.ar      1             0.5166
      3 C2         16.0249   15.2858   65.1923 C.ar      1            -0.1109
      4 N2         17.3095   15.3038   64.7585 N.2       1            -0.3857
      5 C3         17.3454   15.7380   63.5233 C.2       1             0.2059
      6 N3         16.0770   16.0233   63.0965 N.pl3     1            -0.5582
      7 C4         15.2209   15.7451   64.1364 C.ar      1             0.3190
      8 N4         13.9062   15.8224   64.3120 N.ar      1            -0.5622
      9 C5         13.3605   15.4743   65.4585 C.ar      1             0.3729
     10 N5         14.0745   15.0312   66.4772 N.ar      1            -0.5922
     11 S1         18.8067   15.9268   62.5571 S.3       1             0.2050
     12 C6         19.8902   14.6822   63.1751 C.ar      1             0.1718
     13 N6         19.4125   13.5498   63.6754 N.ar      1            -0.4738
     14 C7         20.2155   12.6075   64.1420 C.ar      1             0.3089
     15 N7         21.5228   12.7204   64.1451 N.ar      1            -0.5039
     16 C8         22.1112   13.8248   63.6624 C.ar      1             0.1684
     17 C9         23.5041   13.9790   63.6500 C.ar      1            -0.0957
     18 C10        24.0501   15.1227   63.1477 C.ar      1            -0.0787
     19 C11        23.2454   16.1418   62.6458 C.ar      1            -0.1068
     20 C12        21.8865   16.0243   62.6431 C.ar      1            -0.0852
     21 C13        21.2945   14.8606   63.1462 C.ar      1            -0.1322
     22 H1         15.6924   14.2146   68.2964 H         1             0.4116
     23 H2         17.1026   14.3914   67.4006 H         1             0.4205
     24 H3         15.8276   16.3603   62.2218 H         1             0.4335
     25 H4         12.2886   15.5491   65.5682 H         1             0.2084
     26 H5         19.7750   11.7047   64.5386 H         1             0.1998
     27 H6         24.1409   13.1970   64.0365 H         1             0.1447
     28 H7         25.1237   15.2401   63.1393 H         1             0.1392
     29 H8         23.7034   17.0377   62.2535 H         1             0.1376
     30 H9         21.2722   16.8216   62.2518 H         1             0.1352
@<TRIPOS>BOND
     1    1    2 1 
     2    1   22 1 
     3    1   23 1 
     4    2   10 ar
     5    2    3 ar
     6    3    7 ar
     7    3    4 1 
     8    4    5 2 
     9    5    6 1 
    10    5   11 1 
    11    6    7 1 
    12    6   24 1 
    13    7    8 ar
    14    8    9 ar
    15    9   10 ar
    16    9   25 1 
    17   11   12 1 
    18   12   21 ar
    19   12   13 ar
    20   13   14 ar
    21   14   15 ar
    22   14   26 1 
    23   15   16 ar
    24   16   21 ar
    25   16   17 ar
    26   17   18 ar
    27   17   27 1 
    28   18   19 ar
    29   18   28 1 
    30   19   20 ar
    31   19   29 1 
    32   20   21 ar
    33   20   30 1 
##########                 Name:            E44315674
##########          Protonation:                   60
##########               SMILES:   c1cc(cnc1)CN2C[C@@H]3C[NH+](C[C@H]3C2)CC4CC4
##########            Long Name:   l)-5-(3-pyridylmethyl)-2,3,3a,4,6,6a-hexahydro-1H-pyrrolo[3,4-c]pyrrol-2-ium
##########          FlexRecCode: 1
##########               Number:                  625
##########   Ligand Source File: /raidb/db2/rgc/leads-emolecules-300/leads-lt300-emolecules-1b-0000012.db2.gz
##########           GlobalRank: 2626
##########                 Rank:                    1
##########               Setnum:                   32
##########             Matchnum:                  837
##########                Cloud:                    1
##########        Electrostatic:           -25.186937
##########        Van der Waals:           -22.484715
##########  Ligand Polar Desolv:             8.722387
########## Ligand Apolar Desolv:            -2.083760
##########      Internal Energy:             0.000000
##########      Receptor Energy: 0.0
########## Receptor Desolvation:             0.000000
########## Receptor Hydrophobic:             0.000000
##########         Total Energy: -41.03
##########        Ligand Charge:             1.000000
##########            Arbitrary:    +999.9990
##########     heavy atom count:   19
##########           pose count:    1
##########        Ligand Energy:             0.000000
# num electro vdwattr vdwrepu polsolv apolsol rdesolv rhydroe totalscore fullpol fullapo
#   1   -0.64   -1.08    0.27    0.49   -0.12    0.00    0.00      -1.08    1.46   -0.35
#   2    2.25   -0.57    0.07   -0.90   -0.09    0.00    0.00       0.76   -3.35   -0.34
#   3    0.94   -0.45    0.02   -1.19   -0.12    0.00    0.00      -0.80   -4.26   -0.43
#   4    0.82   -0.88    0.21   -1.36   -0.14    0.00    0.00      -1.34   -4.29   -0.43
#   5   10.28   -1.82    1.51   -4.31    0.17    0.00    0.00       5.82  -12.06    0.47
#   6  -18.12   -0.21    0.14    5.63    0.20    0.00    0.00     -12.37   15.99    0.56
#   7   -0.54   -1.13    0.23    0.46   -0.18    0.00    0.00      -1.15    1.06   -0.42
#   8    2.17   -0.66    0.03   -1.52   -0.07    0.00    0.00      -0.05   -3.69   -0.18
#   9   -0.47   -0.91    0.24    0.46   -0.21    0.00    0.00      -0.88    1.11   -0.50
#  10    2.48   -1.30    0.42   -3.40    1.28    0.00    0.00      -0.52   -9.46    3.57
#  11    0.01   -1.07    0.19    0.64   -0.16    0.00    0.00      -0.39    1.51   -0.37
#  12   -0.39   -1.68    0.40   -0.57   -0.17    0.00    0.00      -2.40   -1.19   -0.36
#  13    0.26   -2.09    0.51    0.16   -0.52    0.00    0.00      -1.68    0.29   -0.95
#  14   -2.00   -2.75    0.60   -1.11    1.30    0.00    0.00      -3.97   -1.76    2.05
#  15    0.35   -2.39    0.47    0.06   -0.62    0.00    0.00      -2.14    0.09   -0.98
#  16   -1.07   -1.76    0.28   -0.95   -0.28    0.00    0.00      -3.79   -1.61   -0.48
#  17   -0.46   -1.62    0.31   -0.38   -0.22    0.00    0.00      -2.38   -0.76   -0.43
#  18   -0.45   -0.59    0.05    0.29   -0.12    0.00    0.00      -0.82    0.96   -0.40
#  19    1.84   -0.58    0.04   -1.04   -0.07    0.00    0.00       0.19   -3.31   -0.21
#  20   -0.30   -0.57    0.07    0.40   -0.13    0.00    0.00      -0.53    1.40   -0.46
#  21   -2.52   -0.53    0.61    1.36   -0.07    0.00    0.00      -1.15    5.01   -0.27
#  22   -3.48   -0.80    0.88    1.78   -0.10    0.00    0.00      -1.72    4.84   -0.28
#  23   -0.92   -0.10    0.00    0.37   -0.02    0.00    0.00      -0.67    4.00   -0.24
#  24   -0.84   -0.16    0.01    0.37   -0.04    0.00    0.00      -0.67    2.38   -0.28
#  25   -0.21   -0.11    0.00    0.12   -0.03    0.00    0.00      -0.23    1.10   -0.28
#  26   -0.49   -0.27    0.08    0.22   -0.07    0.00    0.00      -0.53    0.94   -0.28
#  27   -0.66   -0.50    0.21    0.66   -0.09    0.00    0.00      -0.38    1.98   -0.28
#  28   -3.42   -0.39    0.08    1.78   -0.09    0.00    0.00      -2.04    4.79   -0.24
#  29   -3.85   -0.55    0.20    2.01   -0.12    0.00    0.00      -2.31    4.87   -0.28
#  30   -1.05   -0.24    0.02    0.71   -0.07    0.00    0.00      -0.63    2.81   -0.27
#  31   -0.16   -0.27    0.05    0.35   -0.07    0.00    0.00      -0.11    1.23   -0.26
#  32   -0.94   -0.60    0.68    0.53   -0.10    0.00    0.00      -0.43    1.51   -0.28
#  33    0.02   -0.49    0.24    0.47   -0.09    0.00    0.00       0.15    1.42   -0.27
#  34    0.14   -0.45    0.13    0.39   -0.10    0.00    0.00       0.11    1.03   -0.27
#  35   -0.07   -0.44    0.10    0.43   -0.12    0.00    0.00      -0.10    1.01   -0.28
#  36   -0.03   -0.80    0.43    0.58   -0.17    0.00    0.00       0.01    0.94   -0.28
#  37    1.16   -0.42    0.14    0.79   -0.11    0.00    0.00       1.56    2.07   -0.28
#  38    1.46   -0.38    0.10    1.11   -0.09    0.00    0.00       2.20    3.17   -0.27
#  39   -0.46   -0.33    0.11    0.42   -0.06    0.00    0.00      -0.31    1.79   -0.25
#  40   -0.62   -0.14    0.01    0.09   -0.04    0.00    0.00      -0.69    0.72   -0.28
#  41   -1.88   -0.30    0.06    0.77   -0.08    0.00    0.00      -1.43    2.72   -0.28
#  42   -1.92   -0.16    0.02    0.78   -0.04    0.00    0.00      -1.31    5.70   -0.28
#  43   -1.40   -0.15    0.01    0.78   -0.04    0.00    0.00      -0.80    5.11   -0.27
@<TRIPOS>MOLECULE
E44315674
   43    46     0     0     0
SMALL
USER_CHARGES


@<TRIPOS>ATOM
      1 C1         23.8134   21.6880   60.3422 C.3       1             0.0311
      2 C2         25.1912   22.2899   60.0581 C.3       1            -0.2155
      3 C3         25.2901   23.8136   59.9616 C.3       1            -0.1661
      4 C4         25.4032   22.9581   58.6982 C.3       1            -0.1501
      5 N1         23.8022   20.2768   59.9346 N.4       1            -0.4002
      6 H1         24.0007   20.2033   58.9481 H         1             0.4300
      7 C5         22.4633   19.6735   60.2297 C.3       1             0.0225
      8 C6         22.7299   18.6782   61.3123 C.3       1            -0.1561
      9 C7         22.0391   17.3825   61.5927 C.3       1             0.0631
     10 N2         23.1041   16.5068   62.1777 N.3       1            -0.5112
     11 C8         22.8020   16.1733   63.5760 C.3       1             0.0923
     12 C9         21.7901   15.0574   63.6191 C.ar      1            -0.1434
     13 C10        22.2032   13.7386   63.6447 C.ar      1             0.1242
     14 N3         21.3237   12.7570   63.6830 N.ar      1            -0.4816
     15 C11        20.0255   12.9891   63.6983 C.ar      1             0.1073
     16 C12        19.5384   14.2820   63.6745 C.ar      1            -0.1718
     17 C13        20.4332   15.3408   63.6395 C.ar      1            -0.0705
     18 C14        24.4079   17.2429   62.0697 C.3       1             0.0609
     19 C15        24.1646   18.1624   60.8921 C.3       1            -0.1390
     20 C16        24.8288   19.5123   60.7188 C.3       1             0.0194
     21 H2         23.5983   21.7601   61.4083 H         1             0.1298
     22 H3         23.0554   22.2345   59.7810 H         1             0.1283
     23 H4         26.0359   21.7569   60.4943 H         1             0.1256
     24 H5         24.3737   24.3873   60.1005 H         1             0.1062
     25 H6         26.2003   24.2834   60.3344 H         1             0.1104
     26 H7         26.3878   22.8651   58.2399 H         1             0.1124
     27 H8         24.5613   22.9689   58.0059 H         1             0.1072
     28 H9         21.7701   20.4388   60.5788 H         1             0.1379
     29 H10        22.0672   19.1756   59.3445 H         1             0.1364
     30 H11        22.8363   19.2123   62.2565 H         1             0.0921
     31 H12        21.2314   17.5296   62.3096 H         1             0.0828
     32 H13        21.6550   16.9490   60.6694 H         1             0.0966
     33 H14        23.7152   15.8552   64.0791 H         1             0.0513
     34 H15        22.3969   17.0510   64.0795 H         1             0.0967
     35 H16        23.2586   13.5095   63.6329 H         1             0.1560
     36 H17        19.3352   12.1591   63.7294 H         1             0.1595
     37 H18        18.4741   14.4656   63.6873 H         1             0.1378
     38 H19        20.0814   16.3617   63.6248 H         1             0.1271
     39 H20        24.6050   17.8168   62.9752 H         1             0.0633
     40 H21        25.2259   16.5536   61.8607 H         1             0.1006
     41 H22        24.1365   17.6051   59.9558 H         1             0.1211
     42 H23        25.7568   19.4188   60.1546 H         1             0.1420
     43 H24        25.0075   19.9830   61.6856 H         1             0.1336
@<TRIPOS>BOND
     1    1    2 1 
     2    1    5 1 
     3    1   21 1 
     4    1   22 1 
     5    2    4 1 
     6    2    3 1 
     7    2   23 1 
     8    3    4 1 
     9    3   24 1 
    10    3   25 1 
    11    4   26 1 
    12    4   27 1 
    13    5    6 1 
    14    5   20 1 
    15    5    7 1 
    16    7    8 1 
    17    7   28 1 
    18    7   29 1 
    19    8   19 1 
    20    8    9 1 
    21    8   30 1 
    22    9   10 1 
    23    9   31 1 
    24    9   32 1 
    25   10   11 1 
    26   10   18 1 
    27   11   12 1 
    28   11   33 1 
    29   11   34 1 
    30   12   17 ar
    31   12   13 ar
    32   13   14 ar
    33   13   35 1 
    34   14   15 ar
    35   15   16 ar
    36   15   36 1 
    37   16   17 ar
    38   16   37 1 
    39   17   38 1 
    40   18   19 1 
    41   18   39 1 
    42   18   40 1 
    43   19   20 1 
    44   19   41 1 
    45   20   42 1 
    46   20   43 1 
##########                 Name:            E46066526
##########          Protonation:                   97
##########               SMILES:   c1ccc(cc1)C[NH+]2CCC[C@H](C2)CNc3ccncn3
##########            Long Name:   N-[[(3S)-1-benzylpiperidin-1-ium-3-yl]methyl]pyrimidin-4-amine
##########          FlexRecCode: 1
##########               Number:                  557
##########   Ligand Source File: /raidb/db2/rgc/leads-emolecules-300/2-leads-lt300-emolecules-1-0000115.db2.gz
##########           GlobalRank: 2651
##########                 Rank:                    1
##########               Setnum:                  115
##########             Matchnum:                  646
##########                Cloud:                    1
##########        Electrostatic:           -21.908863
##########        Van der Waals:           -23.276855
##########  Ligand Polar Desolv:             7.475852
########## Ligand Apolar Desolv:            -3.297328
##########      Internal Energy:             0.000000
##########      Receptor Energy: 0.0
########## Receptor Desolvation:             0.000000
########## Receptor Hydrophobic:             0.000000
##########         Total Energy: -41.01
##########        Ligand Charge:             1.000000
##########            Arbitrary:    +999.9990
##########     heavy atom count:   21
##########           pose count:    1
##########        Ligand Energy:             0.000000
# num electro vdwattr vdwrepu polsolv apolsol rdesolv rhydroe totalscore fullpol fullapo
#   1   -0.43   -0.87    0.08    1.06   -0.14    0.00    0.00      -0.29    2.56   -0.33
#   2   -1.79   -1.75    0.40   -5.17    0.73    0.00    0.00      -7.59  -11.60    1.63
#   3    1.22   -1.67    0.40    2.06   -0.99    0.00    0.00       1.02    4.37   -2.10
#   4   -0.16   -1.94    0.55   -1.59   -0.21    0.00    0.00      -3.34   -3.28   -0.44
#   5    0.20   -3.23    1.49    0.55   -0.54    0.00    0.00      -1.52    0.99   -0.98
#   6   -2.94   -3.67    1.46   -1.68    1.34    0.00    0.00      -5.49   -2.64    2.10
#   7    1.26   -2.14    0.35    0.79   -1.98    0.00    0.00      -1.71    1.27   -3.17
#   8   -2.80   -1.59    0.25   -2.27    1.21    0.00    0.00      -5.20   -3.92    2.09
#   9    1.00   -0.83    0.07   -1.14   -0.07    0.00    0.00      -0.96   -2.78   -0.16
#  10    1.59   -0.84    0.09   -1.54   -0.10    0.00    0.00      -0.81   -3.38   -0.22
#  11    2.96   -1.17    0.19   -1.80   -0.13    0.00    0.00       0.05   -3.56   -0.25
#  12    0.38   -1.40    0.50    0.00   -0.15    0.00    0.00      -0.68   -0.01   -0.35
#  13    6.95   -1.28    0.42   -4.29    0.10    0.00    0.00       1.90  -12.01    0.27
#  14   -9.06   -0.09    0.02    4.83    0.17    0.00    0.00      -4.13   15.24    0.54
#  15   -0.62   -0.63    0.07    0.61   -0.11    0.00    0.00      -0.68    2.10   -0.36
#  16    0.72   -1.32    0.33   -0.78   -0.09    0.00    0.00      -1.13   -2.92   -0.33
#  17   -0.21   -2.22    1.43   -0.62   -0.11    0.00    0.00      -1.73   -2.02   -0.36
#  18   -0.32   -2.58    1.75   -0.89   -0.16    0.00    0.00      -2.20   -2.67   -0.47
#  19   -0.24   -2.43    1.90   -0.69   -0.15    0.00    0.00      -1.62   -2.18   -0.47
#  20   -0.29   -2.74    4.11   -0.73   -0.13    0.00    0.00       0.22   -2.68   -0.47
#  21    0.01   -1.58    0.69   -0.52   -0.12    0.00    0.00      -1.52   -2.03   -0.46
#  22    0.01   -0.69    0.05    0.17   -0.11    0.00    0.00      -0.57    0.50   -0.33
#  23   -0.18   -0.48    0.13    0.96   -0.10    0.00    0.00       0.33    2.65   -0.27
#  24   -0.38   -0.18    0.02    0.42   -0.05    0.00    0.00      -0.19    2.24   -0.27
#  25    2.86   -0.04    0.00    2.32    0.18    0.00    0.00       5.32    6.65    0.52
#  26   -0.13   -0.33    0.06    1.15   -0.07    0.00    0.00       0.69    3.79   -0.24
#  27   -0.51   -1.19    1.79    1.09   -0.14    0.00    0.00       1.04    2.18   -0.28
#  28    0.46   -0.51    0.11    0.66   -0.16    0.00    0.00       0.56    1.16   -0.28
#  29   -0.73   -0.47    0.10    1.32   -0.11    0.00    0.00       0.11    3.26   -0.28
#  30   -1.17   -0.32    0.08    0.66   -0.09    0.00    0.00      -0.85    2.05   -0.28
#  31   -0.52   -0.32    0.08    0.16   -0.08    0.00    0.00      -0.68    0.48   -0.25
#  32   -2.75   -0.53    0.20    0.71   -0.12    0.00    0.00      -2.51    1.60   -0.28
#  33   -1.61   -0.49    0.16    0.86   -0.11    0.00    0.00      -1.19    2.13   -0.28
#  34   -3.94   -0.60    0.50    1.87   -0.10    0.00    0.00      -2.27    5.32   -0.28
#  35   -4.29   -1.05    1.54    1.37   -0.08    0.00    0.00      -2.50    3.38   -0.20
#  36   -1.81   -0.14    0.01    0.81   -0.03    0.00    0.00      -1.16    6.67   -0.27
#  37   -2.13   -0.21    0.02    1.38   -0.06    0.00    0.00      -1.00    6.17   -0.28
#  38   -0.56   -0.40    0.25    1.07   -0.06    0.00    0.00       0.30    4.63   -0.27
#  39    0.40   -0.43    0.16    0.46   -0.09    0.00    0.00       0.50    1.50   -0.28
#  40    0.40   -0.28    0.06    0.16   -0.06    0.00    0.00       0.29    0.75   -0.28
#  41    0.31   -0.51    0.56    0.33   -0.07    0.00    0.00       0.63    1.41   -0.28
#  42   -0.30   -0.24    0.06    0.85   -0.05    0.00    0.00       0.31    4.58   -0.28
#  43   -1.09   -0.34    0.07    1.77   -0.07    0.00    0.00       0.35    6.90   -0.28
#  44   -1.70   -0.13    0.00    0.75   -0.03    0.00    0.00      -1.12    6.06   -0.28
@<TRIPOS>MOLECULE
E46066526
   44    46     0     0     0
SMALL
USER_CHARGES


@<TRIPOS>ATOM
      1 C1         22.9902   17.2236   63.1051 C.3       1             0.1354
      2 N1         21.7848   16.5340   63.5717 N.pl3     1            -0.7183
      3 C2         21.7530   15.1498   63.6185 C.ar      1             0.4325
      4 C3         22.9395   14.4132   63.6401 C.ar      1            -0.2940
      5 C4         22.8549   13.0358   63.6868 C.ar      1             0.1812
      6 N2         21.6601   12.4616   63.7095 N.ar      1            -0.5536
      7 C5         20.5589   13.1846   63.6882 C.ar      1             0.3447
      8 N3         20.5926   14.5015   63.6492 N.ar      1            -0.5768
      9 C6         22.5977   18.5484   62.4480 C.3       1            -0.1210
     10 C7         21.6780   18.2744   61.2544 C.3       1            -0.1350
     11 C8         21.3545   19.5991   60.5574 C.3       1            -0.1435
     12 C9         22.6590   20.2812   60.1397 C.3       1            -0.0143
     13 N4         23.4821   20.5399   61.3272 N.4       1            -0.3799
     14 H1         22.9582   21.0998   61.9830 H         1             0.4227
     15 C10        24.6981   21.2625   60.9305 C.3       1             0.0449
     16 C11        25.2887   21.9506   62.1340 C.ar      1            -0.1628
     17 C12        24.8999   23.2380   62.4541 C.ar      1            -0.0976
     18 C13        25.4417   23.8694   63.5582 C.ar      1            -0.1134
     19 C14        26.3718   23.2130   64.3424 C.ar      1            -0.0831
     20 C15        26.7599   21.9254   64.0228 C.ar      1            -0.1126
     21 C16        26.2150   21.2925   62.9212 C.ar      1            -0.0937
     22 C17        23.8561   19.2695   61.9603 C.3       1            -0.0011
     23 H2         23.6479   17.4191   63.9521 H         1             0.0773
     24 H3         23.5090   16.5976   62.3791 H         1             0.0779
     25 H4         21.0089   17.0465   63.8479 H         1             0.4091
     26 H5         23.8990   14.9084   63.6204 H         1             0.1393
     27 H6         23.7512   12.4335   63.7043 H         1             0.1685
     28 H7         19.6019   12.6844   63.7074 H         1             0.2000
     29 H8         22.0774   19.1743   63.1730 H         1             0.1039
     30 H9         22.1793   17.6068   60.5538 H         1             0.0868
     31 H10        20.7551   17.8118   61.6041 H         1             0.0954
     32 H11        20.7456   19.4063   59.6741 H         1             0.1146
     33 H12        20.8081   20.2471   61.2426 H         1             0.0881
     34 H13        23.2045   19.6325   59.4543 H         1             0.1294
     35 H14        22.4324   21.2246   59.6428 H         1             0.1330
     36 H15        25.4229   20.5578   60.5229 H         1             0.1377
     37 H16        24.4484   22.0056   60.1732 H         1             0.1362
     38 H17        24.1732   23.7508   61.8414 H         1             0.1309
     39 H18        25.1385   24.8754   63.8078 H         1             0.1366
     40 H19        26.7956   23.7065   65.2045 H         1             0.1365
     41 H20        27.4869   21.4128   64.6353 H         1             0.1366
     42 H21        26.5154   20.2851   62.6738 H         1             0.1312
     43 H22        24.5131   19.4659   62.8075 H         1             0.1355
     44 H23        24.3760   18.6424   61.2362 H         1             0.1346
@<TRIPOS>BOND
     1    1    2 1 
     2    1    9 1 
     3    1   23 1 
     4    1   24 1 
     5    2    3 1 
     6    2   25 1 
     7    3    8 ar
     8    3    4 ar
     9    4    5 ar
    10    4   26 1 
    11    5    6 ar
    12    5   27 1 
    13    6    7 ar
    14    7    8 ar
    15    7   28 1 
    16    9   22 1 
    17    9   10 1 
    18    9   29 1 
    19   10   11 1 
    20   10   30 1 
    21   10   31 1 
    22   11   12 1 
    23   11   32 1 
    24   11   33 1 
    25   12   13 1 
    26   12   34 1 
    27   12   35 1 
    28   13   14 1 
    29   13   15 1 
    30   13   22 1 
    31   15   16 1 
    32   15   36 1 
    33   15   37 1 
    34   16   21 ar
    35   16   17 ar
    36   17   18 ar
    37   17   38 1 
    38   18   19 ar
    39   18   39 1 
    40   19   20 ar
    41   19   40 1 
    42   20   21 ar
    43   20   41 1 
    44   21   42 1 
    45   22   43 1 
    46   22   44 1 
##########                 Name:             E2377902
##########          Protonation:                  100
##########               SMILES:   CCc1ccc(cc1)c2c(cn(n2)c3ccccc3)C=O
##########            Long Name:   3-(4-ethylphenyl)-1-phenyl-pyrazole-4-carbaldehyde
##########          FlexRecCode: 1
##########               Number:                  284
##########   Ligand Source File: /raidb/db2/rgc/leads-emolecules-300/leads-emolecules-3-as-0000001.db2.gz
##########           GlobalRank: 2687
##########                 Rank:                    1
##########               Setnum:                   29
##########             Matchnum:                  140
##########                Cloud:                    1
##########        Electrostatic:            -8.831304
##########        Van der Waals:           -32.182339
##########  Ligand Polar Desolv:             4.769711
########## Ligand Apolar Desolv:            -4.735500
##########      Internal Energy:             0.000000
##########      Receptor Energy: 0.0
########## Receptor Desolvation:             0.000000
########## Receptor Hydrophobic:             0.000000
##########         Total Energy: -40.98
##########        Ligand Charge:             0.000000
##########            Arbitrary:    +999.9990
##########     heavy atom count:   21
##########           pose count:    1
##########        Ligand Energy:             0.000000
# num electro vdwattr vdwrepu polsolv apolsol rdesolv rhydroe totalscore fullpol fullapo
#   1    1.87   -0.50    0.03   -0.09   -0.05    0.00    0.00       1.27   -0.33   -0.19
#   2    1.11   -0.66    0.05   -0.06   -0.08    0.00    0.00       0.36   -0.20   -0.26
#   3    0.62   -1.14    0.08   -0.02   -0.14    0.00    0.00      -0.60   -0.04   -0.36
#   4    0.48   -1.88    0.34    0.03   -0.19    0.00    0.00      -1.23    0.08   -0.45
#   5   -0.10   -2.42    1.06    0.12   -0.21    0.00    0.00      -1.56    0.25   -0.45
#   6   -0.14   -1.98    0.72    0.07   -0.18    0.00    0.00      -1.52    0.15   -0.40
#   7    0.24   -1.95    1.06    0.00   -0.18    0.00    0.00      -0.84    0.00   -0.41
#   8    1.33   -1.24    0.12   -0.06   -0.21    0.00    0.00      -0.06   -0.14   -0.45
#   9    1.85   -2.07    0.70   -0.37   -0.38    0.00    0.00      -0.27   -0.75   -0.77
#  10   -5.48   -3.20    2.70    1.10    0.60    0.00    0.00      -4.28    2.01    1.10
#  11   -3.84   -1.91    0.28    0.87    0.43    0.00    0.00      -4.16    1.45    0.72
#  12    0.94   -2.13    0.62   -0.24   -0.53    0.00    0.00      -1.33   -0.40   -0.90
#  13   -2.05   -1.62    0.24    0.70   -0.26    0.00    0.00      -3.00    1.20   -0.44
#  14    1.45   -1.87    0.36   -0.54   -0.14    0.00    0.00      -0.73   -0.92   -0.23
#  15   -2.13   -2.58    0.50    1.95    0.28    0.00    0.00      -1.98    3.03    0.43
#  16    1.87   -2.46    0.83   -0.21   -0.45    0.00    0.00      -0.42   -0.33   -0.71
#  17   -1.07   -2.81    0.76    0.01   -0.29    0.00    0.00      -3.39    0.01   -0.44
#  18   -0.66   -3.07    0.95   -0.11   -0.30    0.00    0.00      -3.20   -0.18   -0.47
#  19   -1.26   -2.49    1.08   -0.16   -0.31    0.00    0.00      -3.13   -0.24   -0.47
#  20   -1.10   -2.92    1.70   -0.01   -0.28    0.00    0.00      -2.62   -0.01   -0.47
#  21   -1.52   -3.08    1.34    0.25   -0.27    0.00    0.00      -3.28    0.43   -0.46
#  22   -0.65   -0.12    0.01    0.01   -0.03    0.00    0.00      -0.79    0.06   -0.28
#  23   -0.52   -0.12    0.00    0.02   -0.03    0.00    0.00      -0.64    0.20   -0.28
#  24   -1.02   -0.25    0.04    0.03   -0.06    0.00    0.00      -1.25    0.12   -0.28
#  25   -0.59   -0.31    0.06    0.08   -0.07    0.00    0.00      -0.84    0.31   -0.28
#  26   -1.30   -0.22    0.02    0.05   -0.06    0.00    0.00      -1.51    0.21   -0.28
#  27   -0.62   -0.84    0.69    0.05   -0.11    0.00    0.00      -0.83    0.14   -0.28
#  28    0.52   -0.98    1.33   -0.18   -0.12    0.00    0.00       0.56   -0.41   -0.28
#  29   -0.32   -0.49    0.31    0.12   -0.08    0.00    0.00      -0.46    0.32   -0.22
#  30   -2.41   -0.24    0.01    0.20   -0.09    0.00    0.00      -2.52    0.64   -0.28
#  31    0.70   -0.71    0.54    0.01   -0.12    0.00    0.00       0.42    0.02   -0.24
#  32    0.14   -0.32    0.07    0.10   -0.08    0.00    0.00      -0.09    0.27   -0.22
#  33    0.50   -0.58    0.10    0.20   -0.14    0.00    0.00       0.08    0.34   -0.23
#  34    0.37   -0.86    0.36    0.54   -0.17    0.00    0.00       0.24    0.91   -0.28
#  35    1.23   -0.40    0.06    0.42   -0.14    0.00    0.00       1.18    0.85   -0.28
#  36    1.17   -0.65    0.23    0.20   -0.14    0.00    0.00       0.81    0.39   -0.28
#  37    1.56   -0.78    0.32   -0.32   -0.16    0.00    0.00       0.62   -0.55   -0.27
@<TRIPOS>MOLECULE
E2377902
   37    39     0     0     0
SMALL
USER_CHARGES


@<TRIPOS>ATOM
      1 C1         25.0924   18.8046   60.8523 C.3       1            -0.1482
      2 C2         24.1633   19.5857   61.7839 C.3       1            -0.0898
      3 C3         23.0777   18.6725   62.2921 C.ar      1            -0.0647
      4 C4         23.2698   17.9574   63.4605 C.ar      1            -0.1174
      5 C5         22.2792   17.1199   63.9310 C.ar      1            -0.0795
      6 C6         21.0828   16.9952   63.2263 C.ar      1            -0.0316
      7 C7         20.8947   17.7184   62.0493 C.ar      1            -0.0907
      8 C8         21.8906   18.5568   61.5914 C.ar      1            -0.1163
      9 C9         20.0149   16.0970   63.7261 C.2       1             0.1700
     10 N1         18.7915   16.4445   64.0541 N.2       1            -0.2761
     11 N2         18.0901   15.3124   64.4779 N.pl3     1            -0.3065
     12 C10        18.8886   14.2343   64.4147 C.2       1             0.1342
     13 C11        20.1219   14.6484   63.9427 C.2       1            -0.3248
     14 C12        21.3001   13.8099   63.7091 C.2       1             0.4137
     15 O1         21.2502   12.6182   63.9317 O.2       1            -0.4725
     16 C13        16.7558   15.3034   64.9043 C.ar      1             0.1440
     17 C14        16.4390   14.8850   66.1900 C.ar      1            -0.1371
     18 C15        15.1225   14.8773   66.6073 C.ar      1            -0.0918
     19 C16        14.1203   15.2856   65.7464 C.ar      1            -0.1218
     20 C17        14.4326   15.7028   64.4655 C.ar      1            -0.0956
     21 C18        15.7476   15.7183   64.0441 C.ar      1            -0.1125
     22 H1         25.8776   19.4653   60.4847 H         1             0.0565
     23 H2         25.5414   17.9753   61.3988 H         1             0.0599
     24 H3         24.5199   18.4169   60.0097 H         1             0.0572
     25 H4         24.7358   19.9734   62.6265 H         1             0.0748
     26 H5         23.7143   20.4151   61.2374 H         1             0.0742
     27 H6         24.1973   18.0545   64.0055 H         1             0.1281
     28 H7         22.4305   16.5618   64.8432 H         1             0.1281
     29 H8         19.9701   17.6254   61.4991 H         1             0.1286
     30 H9         21.7443   19.1210   60.6821 H         1             0.1302
     31 H10        18.6156   13.2238   64.6805 H         1             0.1934
     32 H11        22.2130   14.2524   63.3389 H         1             0.1081
     33 H12        17.2212   14.5657   66.8627 H         1             0.1322
     34 H13        14.8755   14.5516   67.6070 H         1             0.1365
     35 H14        13.0915   15.2783   66.0750 H         1             0.1321
     36 H15        13.6476   16.0211   63.7954 H         1             0.1352
     37 H16        15.9914   16.0484   63.0451 H         1             0.1396
@<TRIPOS>BOND
     1    1    2 1 
     2    1   22 1 
     3    1   23 1 
     4    1   24 1 
     5    2    3 1 
     6    2   25 1 
     7    2   26 1 
     8    3    8 ar
     9    3    4 ar
    10    4    5 ar
    11    4   27 1 
    12    5    6 ar
    13    5   28 1 
    14    6    7 ar
    15    6    9 1 
    16    7    8 ar
    17    7   29 1 
    18    8   30 1 
    19    9   13 1 
    20    9   10 2 
    21   10   11 1 
    22   11   12 1 
    23   11   16 1 
    24   12   13 2 
    25   12   31 1 
    26   13   14 1 
    27   14   15 2 
    28   14   32 1 
    29   16   21 ar
    30   16   17 ar
    31   17   18 ar
    32   17   33 1 
    33   18   19 ar
    34   18   34 1 
    35   19   20 ar
    36   19   35 1 
    37   20   21 ar
    38   20   36 1 
    39   21   37 1 
##########                 Name:             E3308990
##########          Protonation:                  100
##########               SMILES:   COc1ccc(cc1)OC(=O)CCc2c[nH]c3c2cccc3
##########            Long Name:   (4-methoxyphenyl)
##########          FlexRecCode: 1
##########               Number:                  103
##########   Ligand Source File: /raidb/db2/rgc/leads-emolecules-300/leads-emolecules-2g-0000298.db2.gz
##########           GlobalRank: 2697
##########                 Rank:                    1
##########               Setnum:                  290
##########             Matchnum:                  967
##########                Cloud:                    1
##########        Electrostatic:            -8.593902
##########        Van der Waals:           -32.975533
##########  Ligand Polar Desolv:             5.303551
########## Ligand Apolar Desolv:            -4.700972
##########      Internal Energy:             0.000000
##########      Receptor Energy: 0.0
########## Receptor Desolvation:             0.000000
########## Receptor Hydrophobic:             0.000000
##########         Total Energy: -40.97
##########        Ligand Charge:             0.000000
##########            Arbitrary:    +999.9990
##########     heavy atom count:   22
##########           pose count:    1
##########        Ligand Energy:             0.000000
# num electro vdwattr vdwrepu polsolv apolsol rdesolv rhydroe totalscore fullpol fullapo
#   1   -0.43   -1.18    0.43    0.00    0.01    0.00    0.00      -1.18    0.01    0.03
#   2    2.86   -0.81    0.07    0.27    0.30    0.00    0.00       2.69    0.84    0.93
#   3   -0.93   -1.06    0.18   -0.11   -0.10    0.00    0.00      -2.02   -0.34   -0.31
#   4    0.85   -1.07    0.11    0.18   -0.15    0.00    0.00      -0.08    0.48   -0.42
#   5    0.16   -1.58    0.31    0.16   -0.19    0.00    0.00      -1.13    0.38   -0.44
#   6    0.02   -1.59    0.32   -0.02   -0.11    0.00    0.00      -1.37   -0.04   -0.25
#   7   -1.25   -2.12    0.99    0.50   -0.06    0.00    0.00      -1.94    1.01   -0.13
#   8    2.00   -1.89    0.37   -0.80   -0.09    0.00    0.00      -0.40   -1.35   -0.15
#   9   -2.18   -2.46    0.53    2.23   -0.25    0.00    0.00      -2.14    3.52   -0.40
#  10   -0.64   -1.12    0.15   -0.04   -0.14    0.00    0.00      -1.78   -0.06   -0.24
#  11   -0.32   -1.26    0.23    0.01   -0.12    0.00    0.00      -1.46    0.01   -0.21
#  12   -2.43   -2.20    0.52    0.09   -0.23    0.00    0.00      -4.25    0.15   -0.39
#  13    0.84   -3.59    2.03    0.08   -0.58    0.00    0.00      -1.22    0.13   -0.99
#  14   -5.87   -5.19    4.08   -0.45    0.72    0.00    0.00      -6.71   -0.74    1.17
#  15    1.20   -3.17    1.68   -0.06   -0.47    0.00    0.00      -0.81   -0.10   -0.78
#  16   -1.41   -2.67    1.24    0.10   -0.30    0.00    0.00      -3.04    0.16   -0.48
#  17   -0.97   -2.35    0.70    0.09   -0.31    0.00    0.00      -2.83    0.14   -0.47
#  18   -1.05   -3.11    0.95    0.19   -0.30    0.00    0.00      -3.33    0.29   -0.47
#  19   -0.55   -2.92    0.89    0.18   -0.30    0.00    0.00      -2.71    0.28   -0.47
#  20   -1.29   -2.66    1.17    0.25   -0.28    0.00    0.00      -2.81    0.40   -0.44
#  21    0.13   -1.35    0.32    0.09   -0.19    0.00    0.00      -1.00    0.23   -0.46
#  22    1.03   -1.20    0.29    0.14   -0.17    0.00    0.00       0.10    0.39   -0.46
#  23   -1.13   -0.62    0.52    0.05   -0.08    0.00    0.00      -1.27    0.15   -0.27
#  24   -1.26   -0.60    0.36    0.08   -0.10    0.00    0.00      -1.53    0.20   -0.26
#  25   -1.80   -0.18    0.02    0.08   -0.05    0.00    0.00      -1.93    0.45   -0.28
#  26   -0.54   -0.16    0.01    0.01   -0.04    0.00    0.00      -0.73    0.05   -0.22
#  27   -0.15   -0.44    0.15   -0.14   -0.10    0.00    0.00      -0.68   -0.37   -0.28
#  28    0.64   -0.36    0.09    0.18   -0.10    0.00    0.00       0.45    0.49   -0.28
#  29    0.51   -0.49    0.19    0.08   -0.14    0.00    0.00       0.16    0.17   -0.28
#  30    0.58   -0.47    0.13   -0.07   -0.13    0.00    0.00       0.04   -0.15   -0.28
#  31    1.06   -0.62    0.42   -0.01   -0.11    0.00    0.00       0.74   -0.02   -0.28
#  32    1.82   -0.96    1.25    0.68   -0.15    0.00    0.00       2.65    1.31   -0.28
#  33    0.40   -0.19    0.03    1.22    0.39    0.00    0.00       1.85    1.86    0.59
#  34    1.05   -0.58    0.16    0.09   -0.14    0.00    0.00       0.59    0.19   -0.28
#  35    1.12   -0.45    0.09    0.10   -0.14    0.00    0.00       0.73    0.20   -0.28
#  36    0.43   -1.00    0.59    0.02   -0.17    0.00    0.00      -0.13    0.03   -0.28
#  37    0.39   -0.61    0.11   -0.13   -0.17    0.00    0.00      -0.41   -0.22   -0.28
#  38    0.26   -0.27    0.04   -0.01   -0.08    0.00    0.00      -0.07   -0.04   -0.28
#  39   -1.73   -0.19    0.01   -0.02   -0.06    0.00    0.00      -1.99   -0.10   -0.28
@<TRIPOS>MOLECULE
E3308990
   39    41     0     0     0
SMALL
USER_CHARGES


@<TRIPOS>ATOM
      1 C1         24.6145   18.1264   59.7512 C.3       1             0.0246
      2 O1         25.1209   17.0226   60.5032 O.3       1            -0.3141
      3 C2         24.3191   16.5211   61.4801 C.ar      1             0.1309
      4 C3         24.7512   15.4518   62.2514 C.ar      1            -0.1922
      5 C4         23.9364   14.9421   63.2433 C.ar      1            -0.0826
      6 C5         22.6856   15.4984   63.4673 C.ar      1             0.0471
      7 O2         21.8831   14.9962   64.4437 O.3       1            -0.2943
      8 C6         21.0356   14.0078   64.1165 C.2       1             0.4563
      9 O3         21.3873   12.8555   64.2078 O.2       1            -0.4890
     10 C7         19.6457   14.3356   63.6350 C.3       1            -0.1046
     11 C8         18.9012   15.1168   64.7197 C.3       1            -0.0307
     12 C9         17.5113   15.4445   64.2382 C.2       1            -0.1757
     13 C10        17.1760   15.9130   63.0257 C.2       1             0.0612
     14 N1         15.8213   16.0910   62.9528 N.pl3     1            -0.5947
     15 C11        15.2370   15.7323   64.1469 C.ar      1             0.0947
     16 C12        13.9231   15.7169   64.6038 C.ar      1            -0.1298
     17 C13        13.6494   15.2917   65.8852 C.ar      1            -0.0982
     18 C14        14.6722   14.8775   66.7276 C.ar      1            -0.1444
     19 C15        15.9696   14.8846   66.2994 C.ar      1            -0.0725
     20 C16        16.2692   15.3062   65.0024 C.ar      1            -0.1013
     21 C17        22.2535   16.5669   62.6956 C.ar      1            -0.0770
     22 C18        23.0704   17.0800   61.7072 C.ar      1            -0.1364
     23 H1         25.3520   18.4283   59.0075 H         1             0.0577
     24 H2         23.6925   17.8319   59.2499 H         1             0.0577
     25 H3         24.4126   18.9611   60.4224 H         1             0.1034
     26 H4         25.7249   15.0183   62.0766 H         1             0.1364
     27 H5         24.2729   14.1104   63.8443 H         1             0.1299
     28 H6         19.7077   14.9396   62.7299 H         1             0.1087
     29 H7         19.1087   13.4118   63.4193 H         1             0.1093
     30 H8         18.8392   14.5127   65.6248 H         1             0.0803
     31 H9         19.4382   16.0404   64.9354 H         1             0.0805
     32 H10        17.8724   16.1193   62.2265 H         1             0.1714
     33 H11        15.3436   16.4208   62.1757 H         1             0.4172
     34 H12        13.1205   16.0374   63.9562 H         1             0.1198
     35 H13        12.6287   15.2807   66.2382 H         1             0.1255
     36 H14        14.4405   14.5474   67.7295 H         1             0.1227
     37 H15        16.7602   14.5610   66.9602 H         1             0.1206
     38 H16        21.2797   17.0003   62.8703 H         1             0.1399
     39 H17        22.7355   17.9144   61.1090 H         1             0.1415
@<TRIPOS>BOND
     1    1    2 1 
     2    1   23 1 
     3    1   24 1 
     4    1   25 1 
     5    2    3 1 
     6    3   22 ar
     7    3    4 ar
     8    4    5 ar
     9    4   26 1 
    10    5    6 ar
    11    5   27 1 
    12    6    7 1 
    13    6   21 ar
    14    7    8 1 
    15    8    9 2 
    16    8   10 1 
    17   10   11 1 
    18   10   28 1 
    19   10   29 1 
    20   11   12 1 
    21   11   30 1 
    22   11   31 1 
    23   12   20 1 
    24   12   13 2 
    25   13   14 1 
    26   13   32 1 
    27   14   15 1 
    28   14   33 1 
    29   15   20 ar
    30   15   16 ar
    31   16   17 ar
    32   16   34 1 
    33   17   18 ar
    34   17   35 1 
    35   18   19 ar
    36   18   36 1 
    37   19   20 ar
    38   19   37 1 
    39   21   22 ar
    40   21   38 1 
    41   22   39 1 
##########                 Name:             E3096493
##########          Protonation:                  100
##########               SMILES:   CCCCCCNc1ncc(s1)c2c[nH]c3c2cccc3
##########            Long Name:   N-hexyl-5-(1H-indol-3-yl)thiazol-2-amine
##########          FlexRecCode: 1
##########               Number:                  341
##########   Ligand Source File: /raidb/db2/rgc/leads-emolecules-300/leads-emolecules-3-bg-0000017.db2.gz
##########           GlobalRank: 2715
##########                 Rank:                    1
##########               Setnum:                  206
##########             Matchnum:                 6277
##########                Cloud:                    1
##########        Electrostatic:           -11.036209
##########        Van der Waals:           -30.958385
##########  Ligand Polar Desolv:             4.948406
########## Ligand Apolar Desolv:            -3.911623
##########      Internal Energy:             0.000000
##########      Receptor Energy: 0.0
########## Receptor Desolvation:             0.000000
########## Receptor Hydrophobic:             0.000000
##########         Total Energy: -40.96
##########        Ligand Charge:             0.000000
##########            Arbitrary:    +999.9990
##########     heavy atom count:   21
##########           pose count:    1
##########        Ligand Energy:             0.000000
# num electro vdwattr vdwrepu polsolv apolsol rdesolv rhydroe totalscore fullpol fullapo
#   1    0.74   -0.64    0.08   -0.04   -0.05    0.00    0.00       0.09   -0.13   -0.19
#   2    0.70   -0.33    0.01   -0.03   -0.05    0.00    0.00       0.30   -0.13   -0.25
#   3    0.77   -0.51    0.03   -0.06   -0.06    0.00    0.00       0.16   -0.22   -0.22
#   4    0.66   -0.56    0.06   -0.07   -0.06    0.00    0.00       0.03   -0.24   -0.22
#   5    0.61   -0.72    0.08   -0.12   -0.08    0.00    0.00      -0.24   -0.32   -0.22
#   6   -0.21   -1.29    0.43    0.02   -0.19    0.00    0.00      -1.25    0.04   -0.46
#   7    0.66   -2.35    0.78    0.19    0.84    0.00    0.00       0.11    0.38    1.70
#   8    0.77   -1.94    0.48   -0.79   -1.19    0.00    0.00      -2.67   -1.49   -2.24
#   9   -2.14   -2.23    0.36    2.20    1.24    0.00    0.00      -0.57    3.55    1.99
#  10    0.32   -2.01    0.34   -0.16   -0.60    0.00    0.00      -2.11   -0.26   -0.97
#  11   -0.99   -1.61    0.21    0.36   -0.18    0.00    0.00      -2.22    0.64   -0.32
#  12   -0.08   -2.72    0.82    0.10   -0.38    0.00    0.00      -2.26    0.21   -0.84
#  13   -1.11   -2.07    0.42    0.34   -0.25    0.00    0.00      -2.67    0.59   -0.44
#  14    1.16   -4.04    3.68    0.01   -0.57    0.00    0.00       0.24    0.02   -0.99
#  15   -8.76   -5.06    3.86   -0.34    0.71    0.00    0.00      -9.59   -0.56    1.16
#  16    1.66   -2.98    1.13   -0.08   -0.47    0.00    0.00      -0.74   -0.14   -0.78
#  17   -2.08   -2.88    1.06    0.06   -0.30    0.00    0.00      -4.15    0.09   -0.48
#  18   -1.17   -2.64    0.79    0.07   -0.31    0.00    0.00      -3.25    0.11   -0.47
#  19   -0.89   -3.13    0.88    0.27   -0.31    0.00    0.00      -3.18    0.41   -0.47
#  20   -0.53   -2.67    0.72    0.35   -0.30    0.00    0.00      -2.42    0.55   -0.47
#  21   -1.24   -2.23    0.55    0.41   -0.27    0.00    0.00      -2.78    0.66   -0.44
#  22   -0.15   -0.12    0.01    0.01   -0.04    0.00    0.00      -0.29    0.04   -0.28
#  23   -0.02   -0.20    0.02    0.01   -0.06    0.00    0.00      -0.26    0.03   -0.28
#  24   -0.70   -0.53    0.32    0.02   -0.08    0.00    0.00      -0.99    0.05   -0.28
#  25   -0.16   -0.06    0.00    0.00   -0.02    0.00    0.00      -0.23    0.05   -0.28
#  26   -0.45   -0.09    0.00    0.00   -0.03    0.00    0.00      -0.55    0.05   -0.28
#  27   -0.65   -0.22    0.03    0.03   -0.07    0.00    0.00      -0.88    0.13   -0.28
#  28   -0.21   -0.21    0.03    0.03   -0.06    0.00    0.00      -0.42    0.14   -0.28
#  29   -0.30   -0.18    0.03    0.02   -0.04    0.00    0.00      -0.47    0.11   -0.28
#  30   -0.49   -0.24    0.07    0.02   -0.05    0.00    0.00      -0.69    0.11   -0.28
#  31   -0.37   -0.33    0.18    0.07   -0.07    0.00    0.00      -0.52    0.29   -0.28
#  32   -0.34   -0.25    0.03    0.10   -0.09    0.00    0.00      -0.56    0.31   -0.28
#  33   -0.05   -0.56    0.29   -0.02   -0.09    0.00    0.00      -0.43   -0.05   -0.28
#  34    0.00   -0.53    0.32   -0.02   -0.09    0.00    0.00      -0.33   -0.06   -0.28
#  35   -1.35   -0.06    0.00    0.40    0.26    0.00    0.00      -0.74    0.88    0.58
#  36    0.42   -0.65    0.37   -0.27   -0.16    0.00    0.00      -0.28   -0.48   -0.28
#  37    1.30   -1.16    2.51    0.50   -0.14    0.00    0.00       3.00    0.98   -0.28
#  38    0.17   -0.24    0.11    1.40    0.39    0.00    0.00       1.84    2.11    0.59
#  39    1.74   -0.69    0.31    0.19   -0.14    0.00    0.00       1.40    0.37   -0.28
#  40    1.37   -0.51    0.10    0.18   -0.16    0.00    0.00       0.98    0.32   -0.28
#  41   -0.07   -0.86    0.28   -0.06   -0.18    0.00    0.00      -0.89   -0.10   -0.28
#  42    0.44   -0.60    0.17   -0.34   -0.16    0.00    0.00      -0.48   -0.60   -0.28
@<TRIPOS>MOLECULE
E3096493
   42    44     0     0     0
SMALL
USER_CHARGES


@<TRIPOS>ATOM
      1 C1         27.2331   18.4073   59.0987 C.3       1            -0.1546
      2 C2         26.9344   18.0581   60.5581 C.3       1            -0.1263
      3 C3         25.9854   16.8591   60.6116 C.3       1            -0.1201
      4 C4         25.6868   16.5099   62.0709 C.3       1            -0.1163
      5 C5         24.7377   15.3109   62.1245 C.3       1            -0.1331
      6 C6         24.4391   14.9617   63.5838 C.3       1             0.1327
      7 N1         23.5303   13.8137   63.6351 N.pl3     1            -0.6777
      8 C7         22.1591   14.0152   63.6448 C.2       1             0.3706
      9 N2         21.1818   13.1252   63.6936 N.2       1            -0.5714
     10 C8         19.9180   13.4943   63.6951 C.2       1             0.0761
     11 C9         19.6044   14.8251   63.6452 C.2       1            -0.1330
     12 S1         21.2396   15.5478   63.6025 S.3       1            -0.0181
     13 C10        18.2804   15.4834   63.6357 C.2       1            -0.0870
     14 C11        17.7831   16.2878   62.6634 C.2       1             0.0840
     15 N3         16.5272   16.7077   63.0102 N.pl3     1            -0.5892
     16 C12        16.1719   16.1803   64.2323 C.ar      1             0.0955
     17 C13        15.0316   16.2890   65.0231 C.ar      1            -0.1284
     18 C14        14.9698   15.6270   66.2294 C.ar      1            -0.0972
     19 C15        16.0350   14.8513   66.6660 C.ar      1            -0.1423
     20 C16        17.1636   14.7316   65.9044 C.ar      1            -0.0692
     21 C17        17.2439   15.3880   64.6770 C.ar      1            -0.0921
     22 H1         27.9092   19.2615   59.0606 H         1             0.0535
     23 H2         27.6994   17.5527   58.6087 H         1             0.0541
     24 H3         26.3035   18.6568   58.5872 H         1             0.0535
     25 H4         27.8641   17.8087   61.0696 H         1             0.0615
     26 H5         26.4681   18.9128   61.0482 H         1             0.0616
     27 H6         25.0558   17.1085   60.1000 H         1             0.0624
     28 H7         26.4518   16.0045   60.1216 H         1             0.0623
     29 H8         26.6164   16.2605   62.5825 H         1             0.0667
     30 H9         25.2204   17.3646   62.5610 H         1             0.0668
     31 H10        23.8080   15.5604   61.6130 H         1             0.0711
     32 H11        25.2040   14.4562   61.6345 H         1             0.0710
     33 H12        25.3686   14.7122   64.0953 H         1             0.0699
     34 H13        23.9728   15.8163   64.0739 H         1             0.0700
     35 H14        23.8883   12.9127   63.6621 H         1             0.4184
     36 H15        19.1345   12.7520   63.7351 H         1             0.1642
     37 H16        18.2996   16.5562   61.7537 H         1             0.1775
     38 H17        15.9689   17.2918   62.4736 H         1             0.4202
     39 H18        14.1981   16.8909   64.6921 H         1             0.1219
     40 H19        14.0843   15.7125   66.8416 H         1             0.1268
     41 H20        15.9715   14.3389   67.6146 H         1             0.1238
     42 H21        17.9888   14.1267   66.2502 H         1             0.1204
@<TRIPOS>BOND
     1    1    2 1 
     2    1   22 1 
     3    1   23 1 
     4    1   24 1 
     5    2    3 1 
     6    2   25 1 
     7    2   26 1 
     8    3    4 1 
     9    3   27 1 
    10    3   28 1 
    11    4    5 1 
    12    4   29 1 
    13    4   30 1 
    14    5    6 1 
    15    5   31 1 
    16    5   32 1 
    17    6    7 1 
    18    6   33 1 
    19    6   34 1 
    20    7    8 1 
    21    7   35 1 
    22    8   12 1 
    23    8    9 2 
    24    9   10 1 
    25   10   11 2 
    26   10   36 1 
    27   11   12 1 
    28   11   13 1 
    29   13   21 1 
    30   13   14 2 
    31   14   15 1 
    32   14   37 1 
    33   15   16 1 
    34   15   38 1 
    35   16   21 ar
    36   16   17 ar
    37   17   18 ar
    38   17   39 1 
    39   18   19 ar
    40   18   40 1 
    41   19   20 ar
    42   19   41 1 
    43   20   21 ar
    44   20   42 1 
##########                 Name:            E30182012
##########          Protonation:                   90
##########               SMILES:   c1cc(ccc1OC[C@H](C[NH+]2CCC[C@H](C2)O)O)F
##########            Long Name:   (3R)-1-[(2S)-3-(4-fluorophenoxy)-2-hydroxy-propyl]piperidin-1-ium-3-ol
##########          FlexRecCode: 1
##########               Number:                   80
##########   Ligand Source File: /raidb/db2/rgc/leads-emolecules-300/leads-emolecules-3-be-0000019.db2.gz
##########           GlobalRank: 2728
##########                 Rank:                    1
##########               Setnum:                   95
##########             Matchnum:                 3651
##########                Cloud:                    1
##########        Electrostatic:           -26.080193
##########        Van der Waals:           -19.986778
##########  Ligand Polar Desolv:             5.709519
########## Ligand Apolar Desolv:            -0.592310
##########      Internal Energy:             0.000000
##########      Receptor Energy: 0.0
########## Receptor Desolvation:             0.000000
########## Receptor Hydrophobic:             0.000000
##########         Total Energy: -40.95
##########        Ligand Charge:             1.000000
##########            Arbitrary:    +999.9990
##########     heavy atom count:   19
##########           pose count:    1
##########        Ligand Energy:             0.000000
# num electro vdwattr vdwrepu polsolv apolsol rdesolv rhydroe totalscore fullpol fullapo
#   1    5.30   -5.07    5.47   -6.55    0.74    0.00    0.00      -0.13  -13.34    1.50
#   2   -0.98   -1.00    0.14    1.00   -0.05    0.00    0.00      -0.88    2.41   -0.12
#   3   -0.15   -0.76    0.05   -0.12   -0.03    0.00    0.00      -1.01   -0.30   -0.08
#   4   -0.29   -1.34    0.25   -2.22    0.35    0.00    0.00      -3.24   -5.00    0.79
#   5    0.39   -1.61    0.42    0.70   -0.14    0.00    0.00      -0.23    1.60   -0.31
#   6   -1.47   -1.64    0.27   -1.12   -0.21    0.00    0.00      -4.17   -2.20   -0.42
#   7   -0.64   -1.76    0.27   -0.69   -0.28    0.00    0.00      -3.10   -1.15   -0.47
#   8    0.28   -2.08    0.36   -0.14   -0.21    0.00    0.00      -1.79   -0.23   -0.34
#   9   -0.39   -2.23    0.77   -0.29   -0.32    0.00    0.00      -2.46   -0.43   -0.48
#  10   -0.25   -2.02    0.49   -0.48   -0.26    0.00    0.00      -2.51   -0.87   -0.47
#  11   -0.11   -1.65    0.53   -0.62   -0.21    0.00    0.00      -2.05   -1.37   -0.46
#  12    0.51   -0.82    0.11   -0.20   -0.11    0.00    0.00      -0.52   -0.59   -0.33
#  13    5.35   -1.64    1.14   -3.66    0.09    0.00    0.00       1.28  -11.03    0.27
#  14   -9.12   -0.18    0.09    4.00    0.14    0.00    0.00      -5.06   12.42    0.45
#  15    0.30   -1.06    0.25   -0.02   -0.13    0.00    0.00      -0.65   -0.06   -0.37
#  16    2.62   -1.36    0.61   -1.12   -0.08    0.00    0.00       0.66   -3.38   -0.25
#  17    1.19   -0.48    0.03   -1.05   -0.06    0.00    0.00      -0.38   -3.89   -0.24
#  18   -0.03   -0.61    0.08    0.49   -0.04    0.00    0.00      -0.11    1.88   -0.16
#  19   -1.15   -2.65    2.32   -4.41    0.52    0.00    0.00      -5.37  -13.13    1.56
#  20   -0.02   -0.73    0.12    0.12   -0.10    0.00    0.00      -0.60    0.47   -0.37
#  21   -7.67   -0.45    0.42    5.22    0.62    0.00    0.00      -1.86   10.29    1.22
#  22   -2.16   -0.23    0.02    0.82   -0.05    0.00    0.00      -1.61    3.21   -0.21
#  23   -0.61   -0.18    0.02    0.53   -0.04    0.00    0.00      -0.28    3.15   -0.26
#  24   -0.23   -0.32    0.04    0.89   -0.09    0.00    0.00       0.29    2.65   -0.26
#  25    1.99   -0.40    0.12    1.63   -0.08    0.00    0.00       3.26    4.11   -0.21
#  26    0.85   -0.53    0.33    0.75   -0.12    0.00    0.00       1.28    1.71   -0.28
#  27    0.12   -0.51    0.13    0.39   -0.13    0.00    0.00       0.01    0.84   -0.28
#  28   -0.20   -0.24    0.03    0.37   -0.07    0.00    0.00      -0.12    1.42   -0.28
#  29   -0.98   -0.45    0.16    1.81   -0.08    0.00    0.00       0.46    6.44   -0.28
#  30   -1.84   -0.13    0.00    0.85   -0.03    0.00    0.00      -1.16    7.09   -0.28
#  31   -2.91   -0.40    0.32    1.24   -0.06    0.00    0.00      -1.81    5.52   -0.28
#  32   -3.59   -0.41    0.12    1.23   -0.08    0.00    0.00      -2.73    3.59   -0.22
#  33   -1.97   -0.99    1.43    0.57   -0.10    0.00    0.00      -1.05    1.65   -0.28
#  34   -2.28   -0.57    0.39    0.39   -0.08    0.00    0.00      -2.16    1.27   -0.27
#  35   -0.53   -0.11    0.00    0.30   -0.03    0.00    0.00      -0.38    2.51   -0.28
#  36   -0.49   -0.13    0.00    0.10   -0.04    0.00    0.00      -0.55    0.78   -0.28
#  37    0.22   -0.12    0.01    0.27   -0.04    0.00    0.00       0.34    2.01   -0.28
#  38   -4.38   -0.21    0.13    2.88    0.40    0.00    0.00      -1.18    8.72    1.22
#  39   -0.02   -0.42    0.19    1.24   -0.07    0.00    0.00       0.92    5.03   -0.28
#  40   -0.75   -0.09    0.00    0.61   -0.03    0.00    0.00      -0.27    6.40   -0.28
@<TRIPOS>MOLECULE
E30182012
   40    41     0     0     0
SMALL
USER_CHARGES


@<TRIPOS>ATOM
      1 O1         22.0644   19.9645   63.3671 O.3       1            -0.5418
      2 C1         22.6754   19.2268   62.3066 C.3       1             0.0865
      3 C2         22.6784   17.7374   62.6572 C.3       1             0.0284
      4 O2         21.3340   17.2877   62.8376 O.3       1            -0.2989
      5 C3         21.1590   15.9777   63.1558 C.ar      1             0.1084
      6 C4         19.8802   15.4728   63.3396 C.ar      1            -0.1800
      7 C5         19.7039   14.1414   63.6631 C.ar      1            -0.1136
      8 C6         20.8028   13.3111   63.8043 C.ar      1             0.0735
      9 F1         20.6290   12.0094   64.1210 F         1            -0.1335
     10 C7         22.0799   13.8137   63.6206 C.ar      1            -0.1102
     11 C8         22.2588   15.1434   63.2915 C.ar      1            -0.1138
     12 C9         24.1147   19.7083   62.1135 C.3       1            -0.0447
     13 N1         24.1117   21.1382   61.7769 N.4       1            -0.3742
     14 H1         23.4159   21.6121   62.3332 H         1             0.4366
     15 C10        23.7938   21.3035   60.3535 C.3       1            -0.0140
     16 C11        23.7096   22.7936   60.0156 C.3       1            -0.1412
     17 C12        25.0557   23.4574   60.3201 C.3       1            -0.1712
     18 C13        25.4125   23.2148   61.7894 C.3       1             0.0834
     19 O3         24.4361   23.8373   62.6267 O.3       1            -0.5726
     20 C14        25.4341   21.7087   62.0599 C.3       1             0.0034
     21 H2         22.0278   20.9183   63.2124 H         1             0.3907
     22 H3         22.1136   19.3819   61.3855 H         1             0.1346
     23 H4         23.1444   17.1747   61.8483 H         1             0.0827
     24 H5         23.2401   17.5822   63.5783 H         1             0.0783
     25 H6         19.0229   16.1204   63.2303 H         1             0.1342
     26 H7         18.7083   13.7480   63.8063 H         1             0.1423
     27 H8         22.9362   13.1649   63.7306 H         1             0.1488
     28 H9         23.2548   15.5343   63.1443 H         1             0.1446
     29 H10        24.6764   19.5529   63.0346 H         1             0.1391
     30 H11        24.5806   19.1455   61.3046 H         1             0.1443
     31 H12        24.5740   20.8383   59.7511 H         1             0.1292
     32 H13        22.8371   20.8278   60.1377 H         1             0.1329
     33 H14        23.4752   22.9143   58.9579 H         1             0.1132
     34 H15        22.9295   23.2599   60.6174 H         1             0.0945
     35 H16        25.8271   23.0267   59.6818 H         1             0.0923
     36 H17        24.9838   24.5291   60.1347 H         1             0.0982
     37 H18        26.3950   23.6371   62.0000 H         1             0.1041
     38 H19        23.5365   23.5082   62.4938 H         1             0.4080
     39 H20        25.6894   21.5323   63.1049 H         1             0.1362
     40 H21        26.1783   21.2346   61.4201 H         1             0.1413
@<TRIPOS>BOND
     1    1    2 1 
     2    1   21 1 
     3    2    3 1 
     4    2   12 1 
     5    2   22 1 
     6    3    4 1 
     7    3   23 1 
     8    3   24 1 
     9    4    5 1 
    10    5   11 ar
    11    5    6 ar
    12    6    7 ar
    13    6   25 1 
    14    7    8 ar
    15    7   26 1 
    16    8    9 1 
    17    8   10 ar
    18   10   11 ar
    19   10   27 1 
    20   11   28 1 
    21   12   13 1 
    22   12   29 1 
    23   12   30 1 
    24   13   14 1 
    25   13   20 1 
    26   13   15 1 
    27   15   16 1 
    28   15   31 1 
    29   15   32 1 
    30   16   17 1 
    31   16   33 1 
    32   16   34 1 
    33   17   18 1 
    34   17   35 1 
    35   17   36 1 
    36   18   19 1 
    37   18   20 1 
    38   18   37 1 
    39   19   38 1 
    40   20   39 1 
    41   20   40 1 
##########                 Name:            E44441060
##########          Protonation:                   92
##########               SMILES:   c1cc(c(cc1C(F)(F)F)F)CN2CC[C@@H]([C@@H](C2)O)[NH3+]
##########            Long Name:   -[[2-fluoro-4-(trifluoromethyl)phenyl]methyl]-3-hydroxy-4-piperidyl]ammonium
##########          FlexRecCode: 1
##########               Number:                  567
##########   Ligand Source File: /raidb/db2/rgc/leads-emolecules-300/leads-emolecules-2e-0000340.db2.gz
##########           GlobalRank: 2754
##########                 Rank:                    1
##########               Setnum:                   21
##########             Matchnum:                 6117
##########                Cloud:                    1
##########        Electrostatic:           -33.166546
##########        Van der Waals:           -19.365601
##########  Ligand Polar Desolv:            12.341282
########## Ligand Apolar Desolv:            -0.739204
##########      Internal Energy:             0.000000
##########      Receptor Energy: 0.0
########## Receptor Desolvation:             0.000000
########## Receptor Hydrophobic:             0.000000
##########         Total Energy: -40.93
##########        Ligand Charge:             1.000000
##########            Arbitrary:    +999.9990
##########     heavy atom count:   20
##########           pose count:    1
##########        Ligand Energy:             0.000000
# num electro vdwattr vdwrepu polsolv apolsol rdesolv rhydroe totalscore fullpol fullapo
#   1   19.09   -3.37    4.75   -8.83    0.29    0.00    0.00      11.94  -22.17    0.74
#   2  -14.19   -0.07    0.01    6.43    0.22    0.00    0.00      -7.61   15.73    0.54
#   3  -19.85   -0.33    0.31    8.20    0.26    0.00    0.00     -11.40   18.33    0.58
#   4  -10.16   -0.04    0.00    6.01    0.19    0.00    0.00      -4.00   18.40    0.58
#   5   -0.73   -0.87    0.20    0.84   -0.10    0.00    0.00      -0.65    2.41   -0.29
#   6    2.12   -1.22    0.55   -1.27   -0.09    0.00    0.00       0.08   -3.45   -0.24
#   7   -0.44   -1.26    0.31    0.25   -0.14    0.00    0.00      -1.28    0.70   -0.40
#   8    3.78   -1.13    0.09   -3.79    1.16    0.00    0.00       0.11   -9.97    3.04
#   9   -0.30   -1.42    0.49    0.55   -0.14    0.00    0.00      -0.83    1.38   -0.36
#  10   -0.02   -1.69    0.36   -0.31   -0.14    0.00    0.00      -1.80   -0.72   -0.33
#  11    0.44   -1.76    0.46    0.34   -0.15    0.00    0.00      -0.66    0.78   -0.34
#  12   -0.62   -1.38    0.65   -0.50   -0.21    0.00    0.00      -2.07   -1.08   -0.46
#  13   -0.59   -1.61    0.32   -0.53   -0.23    0.00    0.00      -2.63   -1.01   -0.44
#  14   -0.53   -1.85    0.37   -0.78   -0.23    0.00    0.00      -3.01   -1.31   -0.38
#  15   -0.13   -2.31    0.62   -0.48   -0.24    0.00    0.00      -2.54   -0.88   -0.44
#  16    0.01   -1.98    0.64   -0.41   -0.20    0.00    0.00      -1.93   -0.88   -0.42
#  17    1.39   -1.79    0.37    1.50   -0.05    0.00    0.00       1.43    2.31   -0.07
#  18   -0.73   -2.00    2.07   -0.39   -0.29    0.00    0.00      -1.35   -0.64   -0.48
#  19   -0.45   -2.66    1.60   -0.58   -0.31    0.00    0.00      -2.39   -0.85   -0.45
#  20   -0.14   -3.28    3.27   -0.46   -0.30    0.00    0.00      -0.90   -0.68   -0.45
#  21   -0.23   -0.63    0.06    0.03   -0.12    0.00    0.00      -0.89    0.10   -0.38
#  22   -1.81   -0.95    0.16    0.95   -0.06    0.00    0.00      -1.71    2.44   -0.15
#  23   10.37   -1.24    0.12   -6.51    0.74    0.00    0.00       3.48  -13.52    1.54
#  24   -2.67   -0.21    0.05    1.05   -0.04    0.00    0.00      -1.83    6.76   -0.28
#  25   -1.34   -0.52    0.48    0.96   -0.07    0.00    0.00      -0.49    3.79   -0.28
#  26   -1.97   -0.64    0.64    0.46   -0.09    0.00    0.00      -1.60    1.38   -0.26
#  27   -0.39   -0.33    0.11    0.35   -0.06    0.00    0.00      -0.32    1.55   -0.28
#  28   -0.43   -1.03    0.94    0.30   -0.10    0.00    0.00      -0.32    0.70   -0.24
#  29   -0.48   -0.39    0.15    0.23   -0.06    0.00    0.00      -0.55    0.95   -0.26
#  30   -0.08   -1.09    1.04    0.70   -0.12    0.00    0.00       0.46    1.54   -0.27
#  31    1.37   -0.27    0.02    0.26   -0.09    0.00    0.00       1.29    0.77   -0.27
#  32    0.35   -0.81    0.42    0.95   -0.14    0.00    0.00       0.77    1.86   -0.27
#  33   -0.24   -0.37    0.08    1.16   -0.09    0.00    0.00       0.55    3.50   -0.28
#  34   -0.55   -0.13    0.00    0.22   -0.04    0.00    0.00      -0.49    1.63   -0.28
#  35   -0.85   -0.34    0.17    0.24   -0.06    0.00    0.00      -0.85    1.01   -0.27
#  36   -2.17   -0.62    0.34    1.62   -0.11    0.00    0.00      -0.94    4.05   -0.28
#  37  -10.00   -0.03    0.00    3.54    0.49    0.00    0.00      -6.01    8.73    1.22
@<TRIPOS>MOLECULE
E44441060
   37    38     0     0     0
SMALL
USER_CHARGES


@<TRIPOS>ATOM
      1 N1         23.2518   20.8757   59.4800 N.4       1            -0.6321
      2 H1         22.2548   20.9228   59.6277 H         1             0.4421
      3 H2         23.4379   20.5743   58.5353 H         1             0.4352
      4 H3         23.6572   21.7877   59.6281 H         1             0.4361
      5 C1         23.8420   19.9180   60.4247 C.3       1             0.0344
      6 C2         23.5535   20.3701   61.8589 C.3       1            -0.1363
      7 C3         24.1177   19.3376   62.8374 C.3       1             0.0532
      8 N2         23.4982   18.0307   62.5830 N.3       1            -0.5255
      9 C4         23.9124   17.0466   63.5920 C.3       1             0.0936
     10 C5         22.9278   15.9060   63.6152 C.ar      1            -0.0933
     11 C6         21.5675   16.1647   63.5928 C.ar      1             0.1283
     12 F1         21.1224   17.4395   63.5501 F         1            -0.1230
     13 C7         20.6642   15.1158   63.6138 C.ar      1            -0.1074
     14 C8         21.1207   13.8120   63.6571 C.ar      1            -0.1457
     15 C9         22.4787   13.5550   63.6795 C.ar      1            -0.0792
     16 C10        23.3820   14.6016   63.6533 C.ar      1            -0.0872
     17 C11        20.1377   12.6700   63.6805 C.3       1             0.5085
     18 F2         18.8338   13.1764   63.6518 F         1            -0.1697
     19 F3         20.3453   11.8530   62.5639 F         1            -0.1719
     20 F4         20.3213   11.9205   64.8474 F         1            -0.1727
     21 C12        23.8013   17.5542   61.2275 C.3       1             0.0219
     22 C13        23.2275   18.5335   60.2011 C.3       1             0.0930
     23 O1         21.8091   18.6105   60.3559 O.3       1            -0.5601
     24 H4         24.9195   19.8681   60.2674 H         1             0.1489
     25 H5         24.0250   21.3366   62.0376 H         1             0.0946
     26 H6         22.4766   20.4577   62.0032 H         1             0.1059
     27 H7         25.1967   19.2607   62.7020 H         1             0.0495
     28 H8         23.9015   19.6495   63.8592 H         1             0.0992
     29 H9         24.9032   16.6663   63.3432 H         1             0.0969
     30 H10        23.9414   17.5217   64.5726 H         1             0.0640
     31 H11        19.6032   15.3163   63.5968 H         1             0.1520
     32 H12        22.8346   12.5359   63.7133 H         1             0.1472
     33 H13        24.4428   14.3996   63.6663 H         1             0.1439
     34 H14        24.8815   17.4856   61.0997 H         1             0.0576
     35 H15        23.3551   16.5707   61.0801 H         1             0.1021
     36 H16        23.4660   18.1877   59.1953 H         1             0.0871
     37 H17        21.3782   19.2169   59.7378 H         1             0.4088
@<TRIPOS>BOND
     1    1    2 1 
     2    1    3 1 
     3    1    4 1 
     4    1    5 1 
     5    5   22 1 
     6    5    6 1 
     7    5   24 1 
     8    6    7 1 
     9    6   25 1 
    10    6   26 1 
    11    7    8 1 
    12    7   27 1 
    13    7   28 1 
    14    8    9 1 
    15    8   21 1 
    16    9   10 1 
    17    9   29 1 
    18    9   30 1 
    19   10   16 ar
    20   10   11 ar
    21   11   12 1 
    22   11   13 ar
    23   13   14 ar
    24   13   31 1 
    25   14   15 ar
    26   14   17 1 
    27   15   16 ar
    28   15   32 1 
    29   16   33 1 
    30   17   18 1 
    31   17   19 1 
    32   17   20 1 
    33   21   22 1 
    34   21   34 1 
    35   21   35 1 
    36   22   23 1 
    37   22   36 1 
    38   23   37 1 
##########                 Name:            E36581753
##########          Protonation:                  100
##########               SMILES:   CCSc1nc(cs1)CC(=O)N[C@@H]2CC[C@H](C2)[NH3+]
##########            Long Name:   (1R,3R)-3-[[2-(2-ethylsulfanylthiazol-4-yl)acetyl]amino]cyclopentyl]ammonium
##########          FlexRecCode: 1
##########               Number:                  619
##########   Ligand Source File: /raidb/db2/rgc/leads-emolecules-300/leads-emolecules-2b-0000068.db2.gz
##########           GlobalRank: 2775
##########                 Rank:                    1
##########               Setnum:                  127
##########             Matchnum:                 3161
##########                Cloud:                    1
##########        Electrostatic:           -27.928925
##########        Van der Waals:           -25.954910
##########  Ligand Polar Desolv:            14.815532
########## Ligand Apolar Desolv:            -1.855370
##########      Internal Energy:             0.000000
##########      Receptor Energy: 0.0
########## Receptor Desolvation:             0.000000
########## Receptor Hydrophobic:             0.000000
##########         Total Energy: -40.92
##########        Ligand Charge:             1.000000
##########            Arbitrary:    +999.9990
##########     heavy atom count:   18
##########           pose count:    1
##########        Ligand Energy:             0.000000
# num electro vdwattr vdwrepu polsolv apolsol rdesolv rhydroe totalscore fullpol fullapo
#   1   -1.33   -2.06    0.71   -0.59   -0.12    0.00    0.00      -3.40   -0.94   -0.19
#   2   -1.21   -1.69    0.65   -0.34   -0.08    0.00    0.00      -2.67   -0.53   -0.12
#   3    0.35   -3.67    1.27   -0.16   -0.47    0.00    0.00      -2.68   -0.28   -0.80
#   4    0.18   -1.63    0.22   -0.07   -0.29    0.00    0.00      -1.58   -0.12   -0.50
#   5   -2.36   -1.58    0.31   -0.04    0.91    0.00    0.00      -2.76   -0.09    1.82
#   6    0.17   -1.75    0.54    0.05   -0.31    0.00    0.00      -1.30    0.11   -0.63
#   7    0.06   -1.01    0.18   -0.30   -0.11    0.00    0.00      -1.18   -0.70   -0.27
#   8   -1.17   -1.39    0.17    1.70   -0.27    0.00    0.00      -0.96    4.11   -0.65
#   9    1.05   -2.53    0.69   -0.35    0.16    0.00    0.00      -0.98   -0.77    0.36
#  10    3.79   -1.16    0.14   -4.37    0.84    0.00    0.00      -0.77  -10.55    2.02
#  11   -1.46   -0.92    0.11    0.88   -0.14    0.00    0.00      -1.52    1.98   -0.32
#  12    2.30   -1.03    0.13   -1.35   -0.14    0.00    0.00      -0.09   -2.65   -0.27
#  13    3.35   -1.35    0.31   -1.60   -0.13    0.00    0.00       0.58   -3.44   -0.27
#  14   -0.40   -0.87    0.17    1.13   -0.13    0.00    0.00      -0.11    3.06   -0.36
#  15   16.53   -2.08    1.75   -8.60    0.27    0.00    0.00       7.87  -23.70    0.74
#  16  -12.26   -0.04    0.00    6.41    0.20    0.00    0.00      -5.69   17.93    0.57
#  17   -7.83   -0.02    0.00    4.12    0.13    0.00    0.00      -3.60   19.53    0.60
#  18  -16.81   -0.20    0.12    7.35    0.23    0.00    0.00      -9.31   19.27    0.59
#  19    2.09   -0.83    0.11   -1.44   -0.10    0.00    0.00      -0.19   -3.75   -0.27
#  20   -0.64   -2.36    0.57   -0.82   -0.15    0.00    0.00      -3.39   -1.39   -0.26
#  21    0.41   -3.76    0.84    0.28   -0.50    0.00    0.00      -2.73    0.44   -0.79
#  22    0.51   -0.79    0.22    0.63   -0.17    0.00    0.00       0.38    1.01   -0.28
#  23    0.59   -0.87    1.07    0.23   -0.14    0.00    0.00       0.87    0.44   -0.28
#  24    1.09   -0.83    0.46    0.22   -0.16    0.00    0.00       0.79    0.40   -0.28
#  25    0.43   -1.09    1.67    0.34   -0.13    0.00    0.00       1.22    0.73   -0.28
#  26    1.06   -0.45    0.11    0.26   -0.11    0.00    0.00       0.87    0.65   -0.28
#  27    0.09   -0.60    0.41    0.60   -0.10    0.00    0.00       0.41    1.74   -0.28
#  28   -0.40   -0.26    0.05    0.76   -0.07    0.00    0.00       0.08    2.96   -0.28
#  29   -2.23   -0.03    0.00    2.31    0.14    0.00    0.00       0.19    8.93    0.55
#  30   -0.73   -0.55    0.20   -0.05   -0.10    0.00    0.00      -1.23   -0.13   -0.26
#  31   -1.13   -0.34    0.05    0.47   -0.12    0.00    0.00      -1.06    1.14   -0.28
#  32   -1.96   -0.39    0.07   -0.20   -0.11    0.00    0.00      -2.58   -0.52   -0.28
#  33   -1.93   -0.50    0.24    1.17   -0.11    0.00    0.00      -1.12    2.95   -0.28
#  34   -3.09   -0.96    0.83    1.35   -0.14    0.00    0.00      -2.00    2.80   -0.28
#  35   -2.84   -0.23    0.04    1.31   -0.05    0.00    0.00      -1.78    6.67   -0.28
#  36   -1.65   -0.63    0.66    1.10   -0.08    0.00    0.00      -0.59    3.75   -0.27
#  37   -1.00   -0.22    0.02    0.75   -0.06    0.00    0.00      -0.51    3.62   -0.27
#  38    0.44   -0.77    0.38    1.68   -0.14    0.00    0.00       1.58    3.33   -0.28
@<TRIPOS>MOLECULE
E36581753
   38    39     0     0     0
SMALL
USER_CHARGES


@<TRIPOS>ATOM
      1 C1         18.2805   15.3215   66.3402 C.3       1            -0.1377
      2 C2         17.4105   14.7433   65.2222 C.3       1            -0.1299
      3 S1         18.0604   15.2746   63.6141 S.3       1             0.0288
      4 C3         19.6990   14.6279   63.5819 C.2       1             0.0276
      5 N1         20.8355   15.2835   63.4698 N.2       1            -0.4772
      6 C4         21.9924   14.6454   63.4618 C.2       1             0.0851
      7 C5         23.2985   15.3862   63.3346 C.3       1            -0.0643
      8 C6         23.0290   16.8652   63.2290 C.2       1             0.5204
      9 O1         23.4832   17.6251   64.0579 O.2       1            -0.5028
     10 N2         22.2834   17.3434   62.2132 N.am      1            -0.7377
     11 C7         22.0213   18.7811   62.1104 C.3       1             0.1461
     12 C8         21.2388   19.1077   60.8331 C.3       1            -0.1360
     13 C9         22.3248   18.7956   59.7854 C.3       1            -0.1420
     14 C10        23.5558   19.4966   60.3776 C.3       1             0.0186
     15 N3         23.6817   20.8531   59.8280 N.4       1            -0.6336
     16 H1         22.8463   21.3792   60.0361 H         1             0.4345
     17 H2         24.4796   21.3111   60.2423 H         1             0.4370
     18 H3         23.8058   20.8006   58.8280 H         1             0.4384
     19 C11        23.3124   19.5574   61.8820 C.3       1            -0.1525
     20 C12        21.9526   13.2960   63.5735 C.2       1            -0.2283
     21 S2         20.1925   13.0227   63.6942 S.3       1             0.1215
     22 H4         17.8900   15.0023   67.3065 H         1             0.0858
     23 H5         19.3039   14.9643   66.2258 H         1             0.0711
     24 H6         18.2674   16.4101   66.2846 H         1             0.0706
     25 H7         17.4236   13.6548   65.2777 H         1             0.0956
     26 H8         16.3871   15.1008   65.3366 H         1             0.0951
     27 H9         23.9141   15.1909   64.2128 H         1             0.1130
     28 H10        23.8227   15.0477   62.4409 H         1             0.1138
     29 H11        21.9200   16.7357   61.5502 H         1             0.4021
     30 H12        21.4967   19.1454   62.9937 H         1             0.1066
     31 H13        20.3747   18.4534   60.7176 H         1             0.0868
     32 H14        20.9468   20.1576   60.8030 H         1             0.0941
     33 H15        22.4903   17.7212   59.7054 H         1             0.1008
     34 H16        22.0638   19.2214   58.8165 H         1             0.0944
     35 H17        24.4563   18.9202   60.1656 H         1             0.1512
     36 H18        23.1948   20.5916   62.2052 H         1             0.0986
     37 H19        24.1368   19.0875   62.4184 H         1             0.1052
     38 H20        22.7630   12.5823   63.5896 H         1             0.1992
@<TRIPOS>BOND
     1    1    2 1 
     2    1   22 1 
     3    1   23 1 
     4    1   24 1 
     5    2    3 1 
     6    2   25 1 
     7    2   26 1 
     8    3    4 1 
     9    4   21 1 
    10    4    5 2 
    11    5    6 1 
    12    6    7 1 
    13    6   20 2 
    14    7    8 1 
    15    7   27 1 
    16    7   28 1 
    17    8    9 2 
    18    8   10 am
    19   10   11 1 
    20   10   29 1 
    21   11   19 1 
    22   11   12 1 
    23   11   30 1 
    24   12   13 1 
    25   12   31 1 
    26   12   32 1 
    27   13   14 1 
    28   13   33 1 
    29   13   34 1 
    30   14   15 1 
    31   14   19 1 
    32   14   35 1 
    33   15   16 1 
    34   15   17 1 
    35   15   18 1 
    36   19   36 1 
    37   19   37 1 
    38   20   21 1 
    39   20   38 1 
##########                 Name:            E32159506
##########          Protonation:                  100
##########               SMILES:   CNC(=[NH2+])NCc1ccc(c(c1)F)Oc2cccnc2
##########            Long Name:   3-fluoro-4-(3-pyridyloxy)phenyl]methylamino]-(methylamino)methylene]ammonium
##########          FlexRecCode: 1
##########               Number:                   23
##########   Ligand Source File: /raidb/db2/rgc/leads-emolecules-300/leads-emolecules-lt300-1g-0000134.db2.gz
##########           GlobalRank: 2775
##########                 Rank:                    1
##########               Setnum:                   59
##########             Matchnum:                 5272
##########                Cloud:                    1
##########        Electrostatic:           -24.175331
##########        Van der Waals:           -23.776808
##########  Ligand Polar Desolv:             9.475753
########## Ligand Apolar Desolv:            -2.440836
##########      Internal Energy:             0.000000
##########      Receptor Energy: 0.0
########## Receptor Desolvation:             0.000000
########## Receptor Hydrophobic:             0.000000
##########         Total Energy: -40.92
##########        Ligand Charge:             1.000000
##########            Arbitrary:    +999.9990
##########     heavy atom count:   20
##########           pose count:    1
##########        Ligand Energy:             0.000000
# num electro vdwattr vdwrepu polsolv apolsol rdesolv rhydroe totalscore fullpol fullapo
#   1   -0.30   -0.54    0.05    0.36   -0.14    0.00    0.00      -0.57    1.34   -0.53
#   2   12.08   -2.28    1.86   -6.35    0.60    0.00    0.00       5.90  -19.48    1.85
#   3  -16.33   -1.92    0.64    7.46   -1.72    0.00    0.00     -11.87   21.41   -4.93
#   4   16.17   -2.00    1.67   -7.09    0.27    0.00    0.00       9.02  -23.06    0.89
#   5   -5.77   -0.02    0.00    2.42    0.08    0.00    0.00      -3.28   14.37    0.48
#   6  -13.47   -0.07    0.01    3.65    0.13    0.00    0.00      -9.75   13.85    0.48
#   7   19.21   -2.83    1.51   -8.27    0.72    0.00    0.00      10.33  -19.82    1.72
#   8   -4.01   -1.66    0.82    1.98   -0.18    0.00    0.00      -3.06    4.21   -0.39
#   9    2.34   -1.18    0.10   -0.72   -0.16    0.00    0.00       0.38   -1.66   -0.37
#  10    0.56   -1.40    0.19   -0.34   -0.20    0.00    0.00      -1.19   -0.75   -0.45
#  11    0.48   -1.46    0.20   -1.00   -0.19    0.00    0.00      -1.96   -2.29   -0.43
#  12   -0.42   -1.19    0.17    0.08   -0.12    0.00    0.00      -1.47    0.21   -0.31
#  13    0.10   -1.34    0.22   -0.60    0.20    0.00    0.00      -1.42   -1.40    0.47
#  14    0.02   -1.80    0.45    0.07   -0.09    0.00    0.00      -1.36    0.14   -0.19
#  15   -0.31   -1.65    0.39   -0.40   -0.26    0.00    0.00      -2.23   -0.73   -0.47
#  16   -0.65   -1.86    0.29   -0.77   -0.29    0.00    0.00      -3.29   -1.26   -0.48
#  17    0.43   -3.32    1.03    0.35   -0.64    0.00    0.00      -2.15    0.53   -0.98
#  18   -2.91   -5.22    4.30   -1.39    1.26    0.00    0.00      -3.96   -2.25    2.04
#  19    0.06   -2.84    1.14    0.12   -0.52    0.00    0.00      -2.03    0.23   -0.96
#  20   -0.61   -1.55    0.81   -0.05   -0.11    0.00    0.00      -1.52   -0.15   -0.34
#  21    0.70   -0.96    0.37   -0.37   -0.18    0.00    0.00      -0.44   -0.96   -0.47
#  22    1.25   -1.68    0.66   -0.44   -0.17    0.00    0.00      -0.38   -1.17   -0.46
#  23   -0.10   -0.17    0.01    0.42   -0.05    0.00    0.00       0.12    2.39   -0.28
#  24   -0.21   -0.12    0.00    0.30   -0.03    0.00    0.00      -0.05    2.59   -0.27
#  25   -0.50   -0.12    0.00    0.26   -0.03    0.00    0.00      -0.38    2.52   -0.27
#  26  -10.04   -0.09    0.02    3.94    0.19    0.00    0.00      -5.97   12.37    0.60
#  27  -12.62   -0.06    0.00    5.20    0.24    0.00    0.00      -7.23   12.20    0.57
#  28   -2.78   -0.70    0.55    1.83   -0.12    0.00    0.00      -1.23    4.15   -0.27
#  29   -3.62   -1.04    1.50    2.01   -0.12    0.00    0.00      -1.28    4.52   -0.27
#  30   -1.59   -0.53    0.23    1.60   -0.10    0.00    0.00      -0.39    4.39   -0.28
#  31    0.27   -0.60    0.42    0.50   -0.09    0.00    0.00       0.50    1.22   -0.23
#  32    0.93   -0.28    0.03    0.55   -0.09    0.00    0.00       1.14    1.77   -0.28
#  33    0.81   -0.39    0.09    1.18   -0.13    0.00    0.00       1.56    2.63   -0.28
#  34   -0.06   -1.18    1.00    1.30   -0.18    0.00    0.00       0.88    2.00   -0.28
#  35   -0.49   -0.62    0.33    0.32   -0.12    0.00    0.00      -0.59    0.74   -0.28
#  36   -2.78   -0.58    0.41    1.36   -0.10    0.00    0.00      -1.69    3.69   -0.28
@<TRIPOS>MOLECULE
E32159506
   36    37     0     0     0
SMALL
USER_CHARGES


@<TRIPOS>ATOM
      1 C1         24.9662   23.5517   60.9734 C.3       1             0.0565
      2 N1         23.6701   22.8694   60.9948 N.pl3     1            -0.6981
      3 C2         23.5320   21.6372   60.4008 C.cat     1             0.7309
      4 N2         24.5543   21.0761   59.8185 N.pl3     1            -0.7731
      5 H1         25.4126   21.5279   59.8043 H         1             0.4405
      6 H2         24.4569   20.2067   59.3994 H         1             0.4410
      7 N3         22.3156   20.9969   60.4206 N.pl3     1            -0.6948
      8 C3         22.1685   19.6838   59.7877 C.3       1             0.1492
      9 C4         22.4695   18.6043   60.7950 C.ar      1            -0.1433
     10 C5         21.9362   18.6805   62.0683 C.ar      1            -0.0584
     11 C6         22.2103   17.6926   62.9947 C.ar      1            -0.1696
     12 C7         23.0210   16.6224   62.6469 C.ar      1             0.1186
     13 O1         23.2917   15.6492   63.5565 O.3       1            -0.2365
     14 C8         22.4537   14.5810   63.6163 C.ar      1             0.0129
     15 C9         21.0743   14.7639   63.5931 C.ar      1            -0.0767
     16 C10        20.2607   13.6445   63.6564 C.ar      1            -0.1560
     17 C11        20.8408   12.3923   63.7397 C.ar      1             0.1124
     18 N4         22.1518   12.2535   63.7601 N.ar      1            -0.4632
     19 C12        22.9610   13.2923   63.6956 C.ar      1             0.1075
     20 C13        23.5558   16.5469   61.3668 C.ar      1             0.0812
     21 F1         24.3460   15.5061   61.0240 F         1            -0.1190
     22 C14        23.2736   17.5362   60.4420 C.ar      1            -0.0894
     23 H3         24.8819   24.5081   61.4894 H         1             0.1164
     24 H4         25.7109   22.9330   61.4740 H         1             0.0846
     25 H5         25.2703   23.7219   59.9405 H         1             0.0847
     26 H6         22.9094   23.2868   61.4282 H         1             0.4371
     27 H7         21.5548   21.4145   60.8539 H         1             0.4354
     28 H8         21.1473   19.5678   59.4247 H         1             0.1019
     29 H9         22.8626   19.6040   58.9510 H         1             0.1027
     30 H10        21.3048   19.5136   62.3395 H         1             0.1399
     31 H11        21.7936   17.7539   63.9891 H         1             0.1436
     32 H12        20.6485   15.7543   63.5278 H         1             0.1453
     33 H13        19.1859   13.7488   63.6410 H         1             0.1496
     34 H14        20.2115   11.5160   63.7893 H         1             0.1697
     35 H15        24.0300   13.1386   63.7097 H         1             0.1656
     36 H16        23.6852   17.4768   59.4454 H         1             0.1508
@<TRIPOS>BOND
     1    1    2 1 
     2    1   23 1 
     3    1   24 1 
     4    1   25 1 
     5    2    3 1 
     6    2   26 1 
     7    3    4 2 
     8    3    7 1 
     9    4    5 1 
    10    4    6 1 
    11    7    8 1 
    12    7   27 1 
    13    8    9 1 
    14    8   28 1 
    15    8   29 1 
    16    9   22 ar
    17    9   10 ar
    18   10   11 ar
    19   10   30 1 
    20   11   12 ar
    21   11   31 1 
    22   12   13 1 
    23   12   20 ar
    24   13   14 1 
    25   14   19 ar
    26   14   15 ar
    27   15   16 ar
    28   15   32 1 
    29   16   17 ar
    30   16   33 1 
    31   17   18 ar
    32   17   34 1 
    33   18   19 ar
    34   19   35 1 
    35   20   21 1 
    36   20   22 ar
    37   22   36 1 
##########                 Name:            E31390692
##########          Protonation:                   67
##########               SMILES:   Cc1c(c(on1)N)C(=O)OCc2[n-]c(=[NH2+])[nH+]c(n2)N(C)C
##########            Long Name:   dimethylamino)-5-aza-1-azonia-3-azanidacyclohexa-4,6-dien-2-ylidene]ammonium
##########          FlexRecCode: 1
##########               Number:                   71
##########   Ligand Source File: /raidb/db2/rgc/leads-emolecules-300/leads-emolecules-2f-0000178.db2.gz
##########           GlobalRank: 2787
##########                 Rank:                    1
##########               Setnum:                  302
##########             Matchnum:                 2738
##########                Cloud:                    1
##########        Electrostatic:           -24.979971
##########        Van der Waals:           -23.470848
##########  Ligand Polar Desolv:             9.441076
########## Ligand Apolar Desolv:            -1.903853
##########      Internal Energy:             0.000000
##########      Receptor Energy: 0.0
########## Receptor Desolvation:             0.000000
########## Receptor Hydrophobic:             0.000000
##########         Total Energy: -40.91
##########        Ligand Charge:             1.000000
##########            Arbitrary:    +999.9990
##########     heavy atom count:   21
##########           pose count:    1
##########        Ligand Energy:             0.000000
# num electro vdwattr vdwrepu polsolv apolsol rdesolv rhydroe totalscore fullpol fullapo
#   1   -0.49   -1.11    0.34    0.56   -0.21    0.00    0.00      -0.90    1.49   -0.55
#   2    6.03   -1.14    0.15   -3.76    0.63    0.00    0.00       1.92  -11.67    1.97
#   3   -0.46   -0.81    0.16    0.27   -0.17    0.00    0.00      -1.02    0.87   -0.55
#   4   -9.77   -1.01    0.11    4.51   -1.52    0.00    0.00      -7.67   13.86   -4.66
#   5   14.65   -1.88    1.02   -5.14    0.36    0.00    0.00       9.01  -14.63    1.01
#   6  -14.64   -0.11    0.03    4.19    0.13    0.00    0.00     -10.40   13.90    0.43
#   7  -16.21   -1.63    0.35    6.26   -1.94    0.00    0.00     -13.17   16.03   -4.98
#   8   23.17   -4.56    5.95   -7.88    0.39    0.00    0.00      17.07  -19.25    0.95
#   9  -12.32   -0.09    0.01    5.63    0.24    0.00    0.00      -6.53   13.70    0.59
#  10  -16.64   -0.13    0.03    5.00    0.25    0.00    0.00     -11.48   11.77    0.59
#  11   10.08   -1.70    0.37   -5.15    0.87    0.00    0.00       4.47  -12.02    2.03
#  12   -5.00   -1.21    0.10    3.57   -0.90    0.00    0.00      -3.44    8.46   -2.14
#  13   -0.24   -1.63    0.70    0.76   -0.06    0.00    0.00      -0.46    1.62   -0.12
#  14   -0.40   -1.78    0.49   -1.83    0.14    0.00    0.00      -3.38   -3.99    0.30
#  15    2.78   -2.10    0.90    2.55   -0.07    0.00    0.00       4.07    5.66   -0.15
#  16   -5.36   -2.31    1.03   -1.82   -0.20    0.00    0.00      -8.67   -3.73   -0.41
#  17   -1.10   -1.73    0.39   -1.58   -0.21    0.00    0.00      -4.23   -3.12   -0.42
#  18   -0.07   -1.93    0.51    1.57   -0.35    0.00    0.00      -0.28    3.25   -0.73
#  19    1.44   -1.66    0.35   -3.95    0.80    0.00    0.00      -3.02   -9.50    1.92
#  20    0.06   -3.15    1.96   -0.35   -0.08    0.00    0.00      -1.56   -0.64   -0.14
#  21   -1.58   -3.70    1.55   -0.82    0.78    0.00    0.00      -3.77   -1.29    1.23
#  22    0.67   -1.96    0.34    0.64   -0.49    0.00    0.00      -0.79    1.06   -0.81
#  23   -0.42   -1.48    0.38   -0.55   -0.13    0.00    0.00      -2.19   -0.90   -0.21
#  24    5.55   -0.87    0.04   -3.96    0.60    0.00    0.00       1.37  -10.88    1.65
#  25   -0.59   -0.39    0.21    0.43   -0.08    0.00    0.00      -0.43    1.43   -0.28
#  26   -0.55   -0.80    0.66    0.53   -0.11    0.00    0.00      -0.27    1.20   -0.25
#  27   -0.42   -0.17    0.01    0.50   -0.06    0.00    0.00      -0.13    2.41   -0.28
#  28   -1.24   -0.26    0.08    0.52   -0.05    0.00    0.00      -0.95    2.80   -0.28
#  29   -0.32   -0.10    0.00    0.38   -0.02    0.00    0.00      -0.06    3.68   -0.21
#  30   -0.76   -0.52    0.23    0.97   -0.10    0.00    0.00      -0.18    2.77   -0.28
#  31   -0.33   -0.94    0.81    1.24   -0.14    0.00    0.00       0.64    2.41   -0.28
#  32    0.42   -0.91    1.95    0.83   -0.11    0.00    0.00       2.18    2.17   -0.28
#  33   -0.89   -0.02    0.00    1.80    0.15    0.00    0.00       1.04    6.77    0.58
#  34   -1.23   -0.02    0.00    1.71    0.16    0.00    0.00       0.61    6.40    0.59
#  35    0.10   -0.77    0.50    1.00   -0.16    0.00    0.00       0.67    1.72   -0.28
#  36    0.53   -0.42    0.11    0.31   -0.12    0.00    0.00       0.41    0.75   -0.28
#  37    0.54   -0.43    0.12    0.49   -0.12    0.00    0.00       0.61    1.13   -0.28
@<TRIPOS>MOLECULE
E31390692
   37    38     0     0     0
SMALL
USER_CHARGES


@<TRIPOS>ATOM
      1 C1         25.0773   15.9967   60.2919 C.3       1             0.0755
      2 N1         25.1852   17.4465   60.1108 N.pl3     1            -0.5397
      3 C2         26.3434   18.0136   59.4160 C.3       1             0.0514
      4 C3         24.1958   18.2777   60.5949 C.cat     1             0.6580
      5 N2         23.9324   19.4260   59.9807 N.pl3     1            -0.6220
      6 H1         24.4347   19.6820   59.1914 H         1             0.4398
      7 C4         22.9785   20.2227   60.4501 C.2       1             0.6880
      8 N3         22.7008   21.4159   59.8155 N.pl3     1            -0.7679
      9 H2         23.2021   21.6735   59.0259 H         1             0.4336
     10 H3         22.0043   21.9972   60.1588 H         1             0.4522
     11 N4         22.2908   19.8682   61.5332 N.2       1            -0.5788
     12 C5         22.5559   18.7253   62.1415 C.2       1             0.4925
     13 C6         21.7748   18.3277   63.3675 C.3       1             0.1185
     14 O1         22.2413   17.0623   63.8399 O.3       1            -0.3295
     15 C7         21.3427   16.0579   63.8889 C.2       1             0.5623
     16 O2         20.1670   16.3025   64.0818 O.2       1            -0.4756
     17 C8         21.7827   14.6720   63.7094 C.2       1            -0.3837
     18 C9         23.0882   14.2412   63.4882 C.2       1             0.4169
     19 N5         24.2014   15.0350   63.3973 N.pl3     1            -0.7947
     20 O3         23.0537   12.9048   63.3811 O.3       1            -0.0972
     21 N6         21.7141   12.4784   63.5352 N.2       1            -0.3074
     22 C10        20.9598   13.5171   63.7348 C.2       1             0.1782
     23 C11        19.4686   13.4985   63.9516 C.3       1            -0.0937
     24 N7         23.5003   17.9278   61.6746 N.2       1            -0.5532
     25 H4         24.1560   15.7648   60.8264 H         1             0.0869
     26 H5         25.0644   15.5088   59.3172 H         1             0.1068
     27 H6         25.9311   15.6377   60.8667 H         1             0.1012
     28 H7         26.2491   19.0989   59.3784 H         1             0.0955
     29 H8         27.2548   17.7464   59.9509 H         1             0.0768
     30 H9         26.3883   17.6176   58.4015 H         1             0.1189
     31 H10        21.9122   19.0790   64.1452 H         1             0.1303
     32 H11        20.7167   18.2542   63.1163 H         1             0.1321
     33 H12        24.1198   15.9971   63.4898 H         1             0.4283
     34 H13        25.0709   14.6349   63.2405 H         1             0.4236
     35 H14        19.1096   12.4697   63.9194 H         1             0.0959
     36 H15        19.2373   13.9338   64.9236 H         1             0.0940
     37 H16        18.9804   14.0783   63.1683 H         1             0.0861
@<TRIPOS>BOND
     1    1    2 1 
     2    1   25 1 
     3    1   26 1 
     4    1   27 1 
     5    2    3 1 
     6    2    4 1 
     7    3   28 1 
     8    3   29 1 
     9    3   30 1 
    10    4   24 1 
    11    4    5 2 
    12    5    6 1 
    13    5    7 1 
    14    7    8 2 
    15    7   11 1 
    16    8    9 1 
    17    8   10 1 
    18   11   12 1 
    19   12   13 1 
    20   12   24 2 
    21   13   14 1 
    22   13   31 1 
    23   13   32 1 
    24   14   15 1 
    25   15   16 2 
    26   15   17 1 
    27   17   22 1 
    28   17   18 2 
    29   18   19 1 
    30   18   20 1 
    31   19   33 1 
    32   19   34 1 
    33   20   21 1 
    34   21   22 2 
    35   22   23 1 
    36   23   35 1 
    37   23   36 1 
    38   23   37 1 
##########                 Name:            E36326999
##########          Protonation:                   21
##########               SMILES:   c1ccnc(c1)C[NH+]2CCCN(CC2)Cc3ccc(cc3)F
##########            Long Name:   1-[(4-fluorophenyl)methyl]-4-(2-pyridylmethyl)-1,4-diazepan-4-ium
##########          FlexRecCode: 1
##########               Number:                  668
##########   Ligand Source File: /raidb/db2/rgc/leads-emolecules-300/leads-emolecules-3-bu-0000008.db2.gz
##########           GlobalRank: 2787
##########                 Rank:                    1
##########               Setnum:                   23
##########             Matchnum:                 4313
##########                Cloud:                    1
##########        Electrostatic:           -18.244516
##########        Van der Waals:           -24.865765
##########  Ligand Polar Desolv:             5.441634
########## Ligand Apolar Desolv:            -3.244570
##########      Internal Energy:             0.000000
##########      Receptor Energy: 0.0
########## Receptor Desolvation:             0.000000
########## Receptor Hydrophobic:             0.000000
##########         Total Energy: -40.91
##########        Ligand Charge:             1.000000
##########            Arbitrary:    +999.9990
##########     heavy atom count:   22
##########           pose count:    1
##########        Ligand Energy:             0.000000
# num electro vdwattr vdwrepu polsolv apolsol rdesolv rhydroe totalscore fullpol fullapo
#   1   -0.34   -1.59    0.44   -0.34   -0.31    0.00    0.00      -2.15   -0.53   -0.48
#   2    0.43   -1.96    0.50   -0.04   -0.21    0.00    0.00      -1.28   -0.07   -0.34
#   3   -0.33   -2.51    1.54   -0.90   -0.27    0.00    0.00      -2.48   -1.54   -0.47
#   4    0.00   -1.90    0.91   -0.50   -0.17    0.00    0.00      -1.66   -1.07   -0.37
#   5   -0.13   -1.54    0.33   -0.46   -0.15    0.00    0.00      -1.95   -1.06   -0.35
#   6   -0.21   -1.00    0.14    0.85   -0.16    0.00    0.00      -0.38    2.03   -0.37
#   7    2.61   -1.51    0.19   -5.25    1.32    0.00    0.00      -2.63  -12.10    3.05
#   8   -0.28   -0.72    0.05    0.26   -0.16    0.00    0.00      -0.84    0.61   -0.37
#   9    2.54   -0.95    0.10   -1.26   -0.11    0.00    0.00       0.32   -2.76   -0.24
#  10    0.71   -1.03    0.21   -0.05   -0.14    0.00    0.00      -0.31   -0.14   -0.38
#  11    5.93   -1.39    0.67   -3.52    0.08    0.00    0.00       1.77  -10.41    0.24
#  12   -9.16   -0.11    0.03    3.95    0.15    0.00    0.00      -5.14   13.01    0.48
#  13   -0.53   -0.53    0.04    0.52   -0.10    0.00    0.00      -0.59    1.96   -0.36
#  14   -0.07   -1.02    0.17    0.39   -0.16    0.00    0.00      -0.70    1.55   -0.63
#  15   -0.32   -1.17    0.23   -0.86   -0.13    0.00    0.00      -2.26   -2.94   -0.46
#  16   -0.18   -1.73    0.99   -0.59   -0.16    0.00    0.00      -1.67   -1.81   -0.48
#  17   -0.41   -1.50    0.49   -0.91   -0.16    0.00    0.00      -2.49   -2.70   -0.48
#  18    0.31   -1.33    0.37    0.25   -0.29    0.00    0.00      -0.69    0.84   -0.98
#  19   -1.20   -1.21    0.29   -2.17    0.39    0.00    0.00      -3.91   -8.57    1.54
#  20   -0.04   -1.19    0.30    0.20   -0.14    0.00    0.00      -0.87    0.60   -0.40
#  21   -0.20   -2.02    0.74    0.16   -0.17    0.00    0.00      -1.49    0.37   -0.38
#  22   -0.43   -1.79    0.47   -0.39   -0.21    0.00    0.00      -2.36   -0.84   -0.46
#  23   -1.08   -1.58    0.22   -0.91   -0.26    0.00    0.00      -3.61   -1.67   -0.47
#  24    0.51   -0.80    0.37    0.50   -0.16    0.00    0.00       0.43    0.89   -0.28
#  25   -0.34   -0.30    0.05    0.76   -0.08    0.00    0.00       0.09    2.39   -0.26
#  26    0.01   -0.67    0.34    1.11   -0.11    0.00    0.00       0.68    2.69   -0.27
#  27   -0.28   -0.19    0.01    0.20   -0.06    0.00    0.00      -0.32    0.99   -0.28
#  28   -0.72   -0.19    0.01    0.23   -0.05    0.00    0.00      -0.71    1.19   -0.26
#  29   -0.89   -0.28    0.05    0.25   -0.05    0.00    0.00      -0.91    0.84   -0.17
#  30   -2.57   -0.37    0.07    0.57   -0.11    0.00    0.00      -2.40    1.49   -0.28
#  31   -1.51   -0.49    0.18    0.64   -0.09    0.00    0.00      -1.27    1.76   -0.26
#  32   -3.11   -0.35    0.16    0.99   -0.06    0.00    0.00      -2.36    4.01   -0.23
#  33   -4.43   -0.61    0.35    1.00   -0.07    0.00    0.00      -3.76    2.72   -0.18
#  34   -1.26   -0.10    0.00    0.67   -0.03    0.00    0.00      -0.71    6.99   -0.27
#  35   -1.82   -0.17    0.02    0.85   -0.05    0.00    0.00      -1.17    4.68   -0.28
#  36   -0.67   -0.18    0.02    0.90   -0.05    0.00    0.00       0.01    5.08   -0.28
#  37    0.43   -0.65    1.36    0.73   -0.09    0.00    0.00       1.78    2.35   -0.28
#  38    0.47   -0.31    0.13    0.47   -0.08    0.00    0.00       0.69    1.71   -0.28
#  39    0.46   -0.22    0.05    0.39   -0.05    0.00    0.00       0.63    2.24   -0.28
#  40   -1.27   -0.17    0.01    0.91   -0.04    0.00    0.00      -0.56    5.78   -0.27
#  41   -0.54   -0.65    0.48    1.83   -0.09    0.00    0.00       1.04    5.85   -0.28
#  42   -1.14   -1.41    1.96    1.48   -0.12    0.00    0.00       0.76    3.10   -0.25
#  43   -0.19   -1.25    1.20    0.85   -0.11    0.00    0.00       0.50    1.70   -0.21
#  44    1.57   -0.61    0.43    1.19   -0.10    0.00    0.00       2.48    3.36   -0.28
#  45    1.44   -0.30    0.03    0.48   -0.11    0.00    0.00       1.54    1.27   -0.28
@<TRIPOS>MOLECULE
E36326999
   45    47     0     0     0
SMALL
USER_CHARGES


@<TRIPOS>ATOM
      1 F1         19.4813   12.6509   63.2698 F         1            -0.1335
      2 C1         20.3499   13.6853   63.2997 C.ar      1             0.1101
      3 C2         21.6995   13.4630   63.0842 C.ar      1            -0.1521
      4 C3         22.5871   14.5218   63.1150 C.ar      1            -0.0859
      5 C4         22.1280   15.8025   63.3607 C.ar      1            -0.1051
      6 C5         23.0968   16.9563   63.3936 C.3       1             0.0999
      7 N1         22.4145   18.1813   62.9555 N.3       1            -0.5422
      8 C6         22.2542   18.2029   61.4686 C.3       1             0.0249
      9 C7         21.9778   19.5683   60.9154 C.3       1            -0.1326
     10 C8         23.2312   20.3329   60.4487 C.3       1            -0.0304
     11 N2         23.9099   20.9010   61.5413 N.4       1            -0.3695
     12 H1         23.3160   21.5957   61.9687 H         1             0.4243
     13 C9         25.1306   21.5564   61.0532 C.3       1             0.0509
     14 C10        25.6032   22.5609   62.0724 C.ar      1             0.0547
     15 C11        25.1463   23.8640   62.0101 C.ar      1            -0.1419
     16 C12        25.5871   24.7802   62.9523 C.ar      1            -0.0659
     17 C13        26.4752   24.3496   63.9265 C.ar      1            -0.1358
     18 C14        26.8882   23.0309   63.9258 C.ar      1             0.1106
     19 N3         26.4436   22.1854   63.0164 N.ar      1            -0.4692
     20 C15        24.2849   19.8901   62.5690 C.3       1             0.0040
     21 C16        23.1493   19.3965   63.4151 C.3       1             0.0288
     22 C17        20.7807   16.0255   63.5759 C.ar      1            -0.0677
     23 C18        19.8905   14.9691   63.5399 C.ar      1            -0.1532
     24 H2         22.0584   12.4626   62.8926 H         1             0.1393
     25 H3         23.6399   14.3487   62.9474 H         1             0.1309
     26 H4         23.4677   17.0904   64.4098 H         1             0.0957
     27 H5         23.9331   16.7477   62.7263 H         1             0.0593
     28 H6         23.1681   17.8209   61.0137 H         1             0.0579
     29 H7         21.4302   17.5432   61.1969 H         1             0.1020
     30 H8         21.3001   19.4666   60.0679 H         1             0.1113
     31 H9         21.4805   20.1582   61.6852 H         1             0.0866
     32 H10        23.8989   19.6443   59.9312 H         1             0.1254
     33 H11        22.9325   21.1247   59.7616 H         1             0.1525
     34 H12        25.9065   20.8075   60.8944 H         1             0.1429
     35 H13        24.9188   22.0652   60.1128 H         1             0.1435
     36 H14        24.4548   24.1645   61.2368 H         1             0.1448
     37 H15        25.2474   25.8051   62.9281 H         1             0.1496
     38 H16        26.8396   25.0363   64.6762 H         1             0.1509
     39 H17        27.5795   22.6877   64.6811 H         1             0.1717
     40 H18        24.7321   19.0351   62.0621 H         1             0.1303
     41 H19        25.0357   20.3303   63.2254 H         1             0.1305
     42 H20        22.4267   20.2072   63.5078 H         1             0.1119
     43 H21        23.5413   19.1913   64.4112 H         1             0.0676
     44 H22        20.4233   17.0263   63.7681 H         1             0.1333
     45 H23        18.8375   15.1442   63.7036 H         1             0.1393
@<TRIPOS>BOND
     1    1    2 1 
     2    2   23 ar
     3    2    3 ar
     4    3    4 ar
     5    3   24 1 
     6    4    5 ar
     7    4   25 1 
     8    5    6 1 
     9    5   22 ar
    10    6    7 1 
    11    6   26 1 
    12    6   27 1 
    13    7   21 1 
    14    7    8 1 
    15    8    9 1 
    16    8   28 1 
    17    8   29 1 
    18    9   10 1 
    19    9   30 1 
    20    9   31 1 
    21   10   11 1 
    22   10   32 1 
    23   10   33 1 
    24   11   12 1 
    25   11   13 1 
    26   11   20 1 
    27   13   14 1 
    28   13   34 1 
    29   13   35 1 
    30   14   19 ar
    31   14   15 ar
    32   15   16 ar
    33   15   36 1 
    34   16   17 ar
    35   16   37 1 
    36   17   18 ar
    37   17   38 1 
    38   18   19 ar
    39   18   39 1 
    40   20   21 1 
    41   20   40 1 
    42   20   41 1 
    43   21   42 1 
    44   21   43 1 
    45   22   23 ar
    46   22   44 1 
    47   23   45 1 
##########                 Name:            E36636576
##########          Protonation:                  100
##########               SMILES:   c1cc(ccc1CNC(=[NH2+])N)Oc2ccc(cc2)F
##########            Long Name:   [amino-[[4-(4-fluorophenoxy)phenyl]methylamino]methylene]ammonium
##########          FlexRecCode: 1
##########               Number:                  574
##########   Ligand Source File: /raidb/db2/rgc/leads-emolecules-300/leads-lt300-emolecules-1b-0000070.db2.gz
##########           GlobalRank: 2795
##########                 Rank:                    1
##########               Setnum:                   21
##########             Matchnum:                 4693
##########                Cloud:                    1
##########        Electrostatic:           -21.446873
##########        Van der Waals:           -21.945559
##########  Ligand Polar Desolv:             5.736618
########## Ligand Apolar Desolv:            -3.239892
##########      Internal Energy:             0.000000
##########      Receptor Energy: 0.0
########## Receptor Desolvation:             0.000000
########## Receptor Hydrophobic:             0.000000
##########         Total Energy: -40.9
##########        Ligand Charge:             1.000000
##########            Arbitrary:    +999.9990
##########     heavy atom count:   19
##########           pose count:    1
##########        Ligand Energy:             0.000000
# num electro vdwattr vdwrepu polsolv apolsol rdesolv rhydroe totalscore fullpol fullapo
#   1   12.90   -1.73    0.58   -7.68    0.29    0.00    0.00       4.36  -23.97    0.91
#   2  -15.22   -1.78    0.55    7.45   -1.71    0.00    0.00     -10.71   22.02   -5.06
#   3   23.74   -4.00    4.32   -9.72    0.38    0.00    0.00      14.72  -23.61    0.92
#   4  -17.80   -0.22    0.10    6.36    0.27    0.00    0.00     -11.29   13.96    0.59
#   5  -12.69   -0.04    0.00    4.88    0.21    0.00    0.00      -7.63   13.43    0.59
#   6   10.09   -0.94    0.12   -5.58    0.49    0.00    0.00       4.18  -19.71    1.72
#   7   -2.63   -0.75    0.22    1.18   -0.11    0.00    0.00      -2.09    4.10   -0.39
#   8    2.55   -0.88    0.05   -0.82   -0.13    0.00    0.00       0.76   -2.36   -0.37
#   9    0.74   -1.20    0.16   -0.36   -0.17    0.00    0.00      -0.83   -0.94   -0.45
#  10    1.59   -1.34    0.31   -1.11   -0.18    0.00    0.00      -0.74   -2.64   -0.43
#  11   -0.45   -1.54    0.27    0.25   -0.14    0.00    0.00      -1.61    0.57   -0.31
#  12   -1.57   -2.45    1.60   -0.90    0.22    0.00    0.00      -3.10   -1.91    0.47
#  13    0.34   -1.78    0.47    0.22   -0.08    0.00    0.00      -0.84    0.47   -0.18
#  14   -0.84   -1.64    0.23   -0.40   -0.24    0.00    0.00      -2.89   -0.76   -0.46
#  15   -0.78   -1.97    0.43   -0.57   -0.28    0.00    0.00      -3.17   -0.96   -0.47
#  16    0.40   -2.17    0.42    0.12   -0.21    0.00    0.00      -1.44    0.20   -0.34
#  17   -0.33   -2.32    0.78   -0.38   -0.33    0.00    0.00      -2.57   -0.56   -0.48
#  18   -0.34   -2.03    0.54   -0.52   -0.27    0.00    0.00      -2.61   -0.91   -0.47
#  19   -0.20   -1.67    0.40   -0.36   -0.22    0.00    0.00      -2.04   -0.76   -0.46
#  20    0.82   -2.31    0.51   -1.01   -0.21    0.00    0.00      -2.20   -2.24   -0.46
#  21    0.51   -1.64    0.30   -0.30   -0.17    0.00    0.00      -1.30   -0.82   -0.45
#  22   -9.79   -0.04    0.00    4.16    0.17    0.00    0.00      -5.49   14.16    0.59
#  23   -3.28   -0.01    0.00    2.24    0.08    0.00    0.00      -0.97   13.80    0.49
#  24   -3.59   -0.01    0.00    1.36    0.06    0.00    0.00      -2.18   12.09    0.57
#  25   -2.96   -0.96    2.70    1.06   -0.07    0.00    0.00      -0.23    3.87   -0.27
#  26   -1.11   -0.12    0.01    0.42   -0.03    0.00    0.00      -0.84    3.70   -0.27
#  27   -2.58   -0.43    0.16    1.24   -0.10    0.00    0.00      -1.72    3.36   -0.28
#  28   -0.85   -0.55    0.66    0.32   -0.08    0.00    0.00      -0.49    0.96   -0.23
#  29    2.21   -0.38    0.08    0.67   -0.11    0.00    0.00       2.48    1.65   -0.28
#  30    0.89   -0.82    1.23    0.72   -0.13    0.00    0.00       1.89    1.50   -0.28
#  31    0.13   -0.50    0.12    0.62   -0.13    0.00    0.00       0.24    1.32   -0.28
#  32    0.04   -0.28    0.04    0.39   -0.08    0.00    0.00       0.10    1.36   -0.28
#  33   -0.41   -0.99    0.54    0.62   -0.15    0.00    0.00      -0.39    1.19   -0.28
#  34   -0.99   -0.49    0.17    1.16   -0.08    0.00    0.00      -0.24    3.83   -0.28
@<TRIPOS>MOLECULE
E36636576
   34    35     0     0     0
SMALL
USER_CHARGES


@<TRIPOS>ATOM
      1 N1         23.7212   23.2210   60.6060 N.pl3     1            -0.7944
      2 C1         23.7163   21.9073   60.3865 C.cat     1             0.7396
      3 N2         22.6042   21.3063   59.9668 N.pl3     1            -0.7959
      4 H1         21.7979   21.8255   59.8211 H         1             0.4405
      5 H2         22.6006   20.3496   59.8070 H         1             0.4407
      6 N3         24.8533   21.1753   60.5921 N.pl3     1            -0.6910
      7 C2         24.8477   19.7312   60.3507 C.3       1             0.1486
      8 C3         23.8265   19.0760   61.2447 C.ar      1            -0.1753
      9 C4         22.9727   18.1173   60.7302 C.ar      1            -0.0500
     10 C5         22.0356   17.5156   61.5474 C.ar      1            -0.1968
     11 C6         21.9522   17.8729   62.8856 C.ar      1             0.1539
     12 O1         21.0315   17.2821   63.6917 O.3       1            -0.2473
     13 C7         20.8861   15.9331   63.6127 C.ar      1             0.0575
     14 C8         19.6178   15.3732   63.5611 C.ar      1            -0.0926
     15 C9         19.4717   14.0019   63.4804 C.ar      1            -0.1400
     16 C10        20.5902   13.1863   63.4509 C.ar      1             0.1132
     17 F1         20.4457   11.8453   63.3719 F         1            -0.1285
     18 C11        21.8566   13.7436   63.5018 C.ar      1            -0.1390
     19 C12        22.0059   15.1149   63.5777 C.ar      1            -0.0916
     20 C13        22.8110   18.8342   63.3993 C.ar      1            -0.1463
     21 C14        23.7497   19.4291   62.5791 C.ar      1            -0.0512
     22 H3         22.9144   23.7398   60.4621 H         1             0.4403
     23 H4         24.5307   23.6584   60.9136 H         1             0.4397
     24 H5         25.6632   21.6130   60.8977 H         1             0.4355
     25 H6         24.5956   19.5371   59.3081 H         1             0.0995
     26 H7         25.8355   19.3224   60.5668 H         1             0.0985
     27 H8         23.0381   17.8395   59.6885 H         1             0.1311
     28 H9         21.3682   16.7680   61.1450 H         1             0.1367
     29 H10        18.7452   16.0090   63.5845 H         1             0.1430
     30 H11        18.4844   13.5657   63.4406 H         1             0.1483
     31 H12        22.7281   13.1062   63.4787 H         1             0.1490
     32 H13        22.9940   15.5495   63.6133 H         1             0.1443
     33 H14        22.7478   19.1144   64.4404 H         1             0.1431
     34 H15        24.4211   20.1745   62.9793 H         1             0.1366
@<TRIPOS>BOND
     1    1    2 1 
     2    1   22 1 
     3    1   23 1 
     4    2    3 2 
     5    2    6 1 
     6    3    4 1 
     7    3    5 1 
     8    6    7 1 
     9    6   24 1 
    10    7    8 1 
    11    7   25 1 
    12    7   26 1 
    13    8   21 ar
    14    8    9 ar
    15    9   10 ar
    16    9   27 1 
    17   10   11 ar
    18   10   28 1 
    19   11   12 1 
    20   11   20 ar
    21   12   13 1 
    22   13   19 ar
    23   13   14 ar
    24   14   15 ar
    25   14   29 1 
    26   15   16 ar
    27   15   30 1 
    28   16   17 1 
    29   16   18 ar
    30   18   19 ar
    31   18   31 1 
    32   19   32 1 
    33   20   21 ar
    34   20   33 1 
    35   21   34 1 
##########                 Name:            E29805840
##########          Protonation:                   40
##########               SMILES:   C[NH+]1CCN(CC1)CC(=O)c2ccc(cc2)OC(F)F
##########            Long Name:   1-[4-(difluoromethoxy)phenyl]-2-(4-methylpiperazin-4-ium-1-yl)ethanone
##########          FlexRecCode: 1
##########               Number:                  421
##########   Ligand Source File: /raidb/db2/rgc/leads-emolecules-300/leads-emolecules-2a-0000080.db2.gz
##########           GlobalRank: 2815
##########                 Rank:                    1
##########               Setnum:                  114
##########             Matchnum:                 5083
##########                Cloud:                    1
##########        Electrostatic:           -22.569780
##########        Van der Waals:           -24.528357
##########  Ligand Polar Desolv:             7.898135
########## Ligand Apolar Desolv:            -1.690745
##########      Internal Energy:             0.000000
##########      Receptor Energy: 0.0
########## Receptor Desolvation:             0.000000
########## Receptor Hydrophobic:             0.000000
##########         Total Energy: -40.89
##########        Ligand Charge:             1.000000
##########            Arbitrary:    +999.9990
##########     heavy atom count:   20
##########           pose count:    1
##########        Ligand Energy:             0.000000
# num electro vdwattr vdwrepu polsolv apolsol rdesolv rhydroe totalscore fullpol fullapo
#   1    0.62   -0.62    0.16   -0.44   -0.11    0.00    0.00      -0.39   -1.86   -0.45
#   2    7.68   -1.45    1.33   -3.06    0.16    0.00    0.00       4.66  -10.93    0.57
#   3  -15.97   -0.17    0.10    4.78    0.16    0.00    0.00     -11.10   16.24    0.56
#   4    0.04   -0.73    0.09    0.12   -0.14    0.00    0.00      -0.62    0.36   -0.43
#   5   -0.38   -0.66    0.04    0.13   -0.15    0.00    0.00      -1.03    0.33   -0.39
#   6    5.87   -0.83    0.05   -3.78    0.97    0.00    0.00       2.27  -11.85    3.03
#   7   -0.07   -1.00    0.35    0.12   -0.10    0.00    0.00      -0.69    0.39   -0.31
#   8   -1.43   -2.46    0.86    2.09   -0.13    0.00    0.00      -1.07    4.90   -0.30
#   9    0.77   -4.66    2.34   -2.14    0.17    0.00    0.00      -3.52   -4.19    0.33
#  10    0.07   -1.83    0.45   -0.90   -0.17    0.00    0.00      -2.39   -2.13   -0.41
#  11   -0.11   -1.71    0.42   -0.01   -0.19    0.00    0.00      -1.60   -0.03   -0.44
#  12   -0.55   -1.66    0.41   -0.85   -0.24    0.00    0.00      -2.89   -1.60   -0.46
#  13    0.36   -2.06    0.48    0.24   -0.17    0.00    0.00      -1.14    0.44   -0.30
#  14   -1.59   -2.86    0.88   -1.27    0.58    0.00    0.00      -4.26   -1.99    0.91
#  15    0.91   -2.12    0.57    1.86    0.01    0.00    0.00       1.22    2.81    0.01
#  16   -0.53   -1.55    0.55   -0.65   -0.27    0.00    0.00      -2.44   -1.04   -0.43
#  17   -0.64   -1.71    0.65   -0.68   -0.27    0.00    0.00      -2.66   -1.07   -0.43
#  18    0.05   -2.46    1.17   -0.55   -0.19    0.00    0.00      -1.99   -1.10   -0.39
#  19    0.01   -2.29    1.16   -0.20   -0.20    0.00    0.00      -1.52   -0.45   -0.45
#  20   -0.21   -0.68    0.08    0.03   -0.11    0.00    0.00      -0.88    0.11   -0.37
#  21    0.01   -0.56    0.09    0.15   -0.11    0.00    0.00      -0.42    0.61   -0.43
#  22   -0.70   -0.08    0.00    0.32   -0.02    0.00    0.00      -0.49    4.19   -0.28
#  23   -0.99   -0.23    0.06    0.91   -0.05    0.00    0.00      -0.30    4.92   -0.28
#  24   -1.26   -0.18    0.02    0.52   -0.03    0.00    0.00      -0.92    2.84   -0.15
#  25   -1.53   -0.22    0.03    1.24   -0.06    0.00    0.00      -0.55    6.03   -0.28
#  26   -3.07   -0.31    0.07    1.02   -0.08    0.00    0.00      -2.37    3.55   -0.28
#  27   -0.84   -0.23    0.02    0.63   -0.05    0.00    0.00      -0.47    2.61   -0.22
#  28   -2.74   -0.26    0.03    0.78   -0.08    0.00    0.00      -2.28    2.61   -0.28
#  29   -0.64   -0.33    0.18    0.52   -0.05    0.00    0.00      -0.31    2.81   -0.28
#  30   -0.99   -0.38    0.14    0.76   -0.06    0.00    0.00      -0.53    3.15   -0.27
#  31    0.77   -0.38    0.10    1.44   -0.08    0.00    0.00       1.86    4.45   -0.24
#  32    0.84   -0.27    0.03    0.70   -0.09    0.00    0.00       1.21    2.14   -0.28
#  33   -0.55   -1.48    2.22    2.33   -0.19    0.00    0.00       2.33    3.49   -0.28
#  34   -0.36   -0.66    0.35    0.08   -0.08    0.00    0.00      -0.66    0.19   -0.18
#  35   -0.20   -0.48    0.22    0.13   -0.08    0.00    0.00      -0.42    0.43   -0.27
#  36   -0.45   -0.14    0.01    0.38   -0.04    0.00    0.00      -0.25    2.14   -0.22
#  37   -2.40   -0.48    0.21    0.18   -0.07    0.00    0.00      -2.56    0.56   -0.20
#  38   -1.37   -0.19    0.03    0.50   -0.05    0.00    0.00      -1.08    3.02   -0.28
#  39   -1.00   -0.09    0.00    0.46   -0.03    0.00    0.00      -0.66    4.77   -0.28
@<TRIPOS>MOLECULE
E29805840
   39    40     0     0     0
SMALL
USER_CHARGES


@<TRIPOS>ATOM
      1 C1         25.8336   21.4752   59.8554 C.3       1            -0.0576
      2 N1         25.0193   20.2549   59.9335 N.4       1            -0.3855
      3 H1         24.5460   20.1102   59.0544 H         1             0.4309
      4 C2         24.0260   20.3977   61.0062 C.3       1            -0.0024
      5 C3         23.1676   19.1330   61.0783 C.3       1             0.0233
      6 N2         24.0325   17.9743   61.3409 N.3       1            -0.5271
      7 C4         24.6655   18.0785   62.6624 C.3       1             0.0083
      8 C5         23.6850   17.6512   63.7241 C.2       1             0.4051
      9 O1         23.3569   18.4291   64.5951 O.2       1            -0.4385
     10 C6         23.1269   16.2930   63.7042 C.ar      1            -0.2099
     11 C7         21.7443   16.1033   63.5882 C.ar      1            -0.0376
     12 C8         21.2281   14.8331   63.5702 C.ar      1            -0.1473
     13 C9         22.0751   13.7341   63.6674 C.ar      1             0.1519
     14 O2         21.5593   12.4795   63.6496 O.3       1            -0.3147
     15 C10        20.1402   12.3632   63.5288 C.3       1             0.4113
     16 F1         19.5259   13.0068   64.6084 F         1            -0.1935
     17 F2         19.7236   12.9578   62.3330 F         1            -0.1940
     18 C11        23.4490   13.9171   63.7824 C.ar      1            -0.2043
     19 C12        23.9757   15.1830   63.7956 C.ar      1            -0.0131
     20 C13        25.0424   17.8310   60.2831 C.3       1             0.0165
     21 C14        25.8878   19.1047   60.2166 C.3       1            -0.0008
     22 H2         26.3452   21.6320   60.8050 H         1             0.1259
     23 H3         26.5703   21.3701   59.0589 H         1             0.1262
     24 H4         25.1896   22.3289   59.6444 H         1             0.1187
     25 H5         24.5371   20.5446   61.9576 H         1             0.1375
     26 H6         23.3892   21.2577   60.7994 H         1             0.1400
     27 H7         22.4390   19.2330   61.8828 H         1             0.0637
     28 H8         22.6474   18.9916   60.1310 H         1             0.1246
     29 H9         25.5428   17.4328   62.6970 H         1             0.0829
     30 H10        24.9667   19.1108   62.8404 H         1             0.1247
     31 H11        21.0856   16.9558   63.5134 H         1             0.1399
     32 H12        20.1619   14.6856   63.4808 H         1             0.1462
     33 H13        19.8608   11.3095   63.5272 H         1             0.1907
     34 H14        24.1025   13.0605   63.8573 H         1             0.1441
     35 H15        25.0431   15.3239   63.8807 H         1             0.1422
     36 H16        25.6848   16.9790   60.5060 H         1             0.0599
     37 H17        24.5466   17.6727   59.3254 H         1             0.1343
     38 H18        26.6306   19.0067   59.4250 H         1             0.1409
     39 H19        26.3921   19.2564   61.1711 H         1             0.1365
@<TRIPOS>BOND
     1    1    2 1 
     2    1   22 1 
     3    1   23 1 
     4    1   24 1 
     5    2    3 1 
     6    2   21 1 
     7    2    4 1 
     8    4    5 1 
     9    4   25 1 
    10    4   26 1 
    11    5    6 1 
    12    5   27 1 
    13    5   28 1 
    14    6    7 1 
    15    6   20 1 
    16    7    8 1 
    17    7   29 1 
    18    7   30 1 
    19    8    9 2 
    20    8   10 1 
    21   10   19 ar
    22   10   11 ar
    23   11   12 ar
    24   11   31 1 
    25   12   13 ar
    26   12   32 1 
    27   13   14 1 
    28   13   18 ar
    29   14   15 1 
    30   15   16 1 
    31   15   17 1 
    32   15   33 1 
    33   18   19 ar
    34   18   34 1 
    35   19   35 1 
    36   20   21 1 
    37   20   36 1 
    38   20   37 1 
    39   21   38 1 
    40   21   39 1 
##########                 Name:              E925264
##########          Protonation:                  100
##########               SMILES:   Cc1c(cnc2n1nc(c2)c3ccc(cc3)Cl)C(=O)C
##########            Long Name:   1-[2-(4-chlorophenyl)-7-methyl-pyrazolo[1,5-a]pyrimidin-6-yl]ethanone
##########          FlexRecCode: 1
##########               Number:                  445
##########   Ligand Source File: /raidb/db2/rgc/leads-emolecules-300/leads-emolecules-2b-0000049.db2.gz
##########           GlobalRank: 2815
##########                 Rank:                    1
##########               Setnum:                   12
##########             Matchnum:                 6214
##########                Cloud:                    1
##########        Electrostatic:            -7.720532
##########        Van der Waals:           -33.138268
##########  Ligand Polar Desolv:             4.442855
########## Ligand Apolar Desolv:            -4.469156
##########      Internal Energy:             0.000000
##########      Receptor Energy: 0.0
########## Receptor Desolvation:             0.000000
########## Receptor Hydrophobic:             0.000000
##########         Total Energy: -40.89
##########        Ligand Charge:             0.000000
##########            Arbitrary:    +999.9990
##########     heavy atom count:   20
##########           pose count:    1
##########        Ligand Energy:             0.000000
# num electro vdwattr vdwrepu polsolv apolsol rdesolv rhydroe totalscore fullpol fullapo
#   1    0.95   -0.64    0.05   -0.43   -0.07    0.00    0.00      -0.14   -1.23   -0.21
#   2   -1.00   -1.68    0.41    0.35   -0.10    0.00    0.00      -2.01    0.89   -0.24
#   3    0.36   -2.83    1.77    0.49    0.15    0.00    0.00      -0.06    1.23    0.39
#   4   -0.01   -2.09    0.77   -0.09   -0.18    0.00    0.00      -1.60   -0.19   -0.39
#   5    0.51   -1.83    0.47   -0.18   -0.34    0.00    0.00      -1.37   -0.39   -0.75
#   6    0.05   -1.08    0.18    0.00   -0.09    0.00    0.00      -0.93    0.00   -0.20
#   7   -1.62   -1.93    0.59    0.72    0.37    0.00    0.00      -1.87    1.40    0.72
#   8   -3.01   -2.19    0.84    0.90    0.60    0.00    0.00      -2.86    1.74    1.17
#   9    1.45   -1.92    0.36   -0.36   -0.44    0.00    0.00      -0.91   -0.62   -0.77
#  10   -1.06   -2.75    1.59    0.54   -0.29    0.00    0.00      -1.98    0.89   -0.48
#  11    1.21   -2.30    0.82   -0.60   -1.30    0.00    0.00      -2.17   -0.99   -2.15
#  12   -2.19   -3.45    1.41    0.72    1.26    0.00    0.00      -2.25    1.17    2.04
#  13    0.24   -3.41    2.18    0.19   -0.52    0.00    0.00      -1.32    0.35   -0.96
#  14   -0.27   -2.22    0.59    0.06   -0.26    0.00    0.00      -2.10    0.09   -0.41
#  15   -0.52   -2.74    0.65   -0.01   -0.29    0.00    0.00      -2.92   -0.01   -0.45
#  16   -0.95   -2.88    0.82   -0.03   -0.30    0.00    0.00      -3.33   -0.05   -0.46
#  17   -0.26   -2.45    0.80    0.02   -0.18    0.00    0.00      -2.07    0.03   -0.29
#  18   -0.67   -4.24    1.18    0.05   -0.65    0.00    0.00      -4.32    0.08   -0.98
#  19   -1.54   -3.02    1.19    0.07   -0.27    0.00    0.00      -3.57    0.11   -0.46
#  20   -1.04   -2.67    0.82    0.09   -0.27    0.00    0.00      -3.06    0.16   -0.45
#  21   -0.53   -0.29    0.11    0.13   -0.06    0.00    0.00      -0.65    0.55   -0.28
#  22   -0.59   -0.16    0.01    0.14   -0.04    0.00    0.00      -0.64    0.97   -0.28
#  23   -0.41   -0.18    0.01    0.33   -0.07    0.00    0.00      -0.31    1.36   -0.28
#  24    0.21   -0.41    0.14    0.04   -0.08    0.00    0.00      -0.10    0.11   -0.21
#  25   -0.06   -0.53    0.15   -0.04   -0.11    0.00    0.00      -0.59   -0.09   -0.28
#  26   -0.45   -0.19    0.01    0.03   -0.05    0.00    0.00      -0.65    0.17   -0.28
#  27    0.04   -0.86    0.56   -0.05   -0.14    0.00    0.00      -0.45   -0.10   -0.25
#  28   -0.42   -1.10    1.29    0.88   -0.14    0.00    0.00       0.51    1.78   -0.28
#  29    0.37   -0.67    0.14    0.30   -0.15    0.00    0.00      -0.01    0.49   -0.24
#  30    0.66   -0.71    0.19    0.27   -0.16    0.00    0.00       0.25    0.47   -0.28
#  31    0.97   -1.07    1.60    0.06   -0.16    0.00    0.00       1.39    0.10   -0.28
#  32    1.88   -0.62    0.23   -0.14   -0.14    0.00    0.00       1.20   -0.27   -0.27
@<TRIPOS>MOLECULE
E925264
   32    34     0     0     0
SMALL
USER_CHARGES


@<TRIPOS>ATOM
      1 C1         24.9642   15.6376   62.0311 C.3       1            -0.1972
      2 C2         24.7282   14.9685   63.3607 C.2       1             0.4210
      3 O1         25.6543   14.7929   64.1242 O.2       1            -0.4344
      4 C3         23.3772   14.5295   63.7321 C.2       1            -0.2792
      5 C4         22.3389   15.4420   63.8152 C.2       1             0.2483
      6 C5         22.5768   16.9017   63.5257 C.3       1            -0.1283
      7 N1         21.1012   14.9990   64.1620 N.pl3     1            -0.3103
      8 N2         19.8788   15.6610   64.3267 N.2       1            -0.2946
      9 C6         18.9612   14.7775   64.6737 C.2       1             0.1637
     10 C7         19.5594   13.5145   64.7450 C.2       1            -0.2424
     11 C8         20.8975   13.6658   64.4231 C.2       1             0.2647
     12 N3         21.9071   12.7841   64.3409 N.2       1            -0.4625
     13 C9         23.1132   13.1635   64.0055 C.2       1             0.2170
     14 C10        17.5325   15.0744   64.9439 C.ar      1            -0.0238
     15 C11        16.9858   14.7990   66.1956 C.ar      1            -0.0733
     16 C12        15.6567   15.0769   66.4418 C.ar      1            -0.1110
     17 C13        14.8667   15.6282   65.4476 C.ar      1            -0.0207
     18 Cl1        13.1954   15.9755   65.7635 Cl        1            -0.0620
     19 C14        15.4054   15.9041   64.2024 C.ar      1            -0.1125
     20 C15        16.7347   15.6347   63.9482 C.ar      1            -0.0714
     21 H1         24.0222   15.7073   61.4873 H         1             0.0931
     22 H2         25.3647   16.6382   62.1940 H         1             0.0980
     23 H3         25.6764   15.0512   61.4507 H         1             0.1002
     24 H4         21.6435   17.4524   63.6442 H         1             0.0963
     25 H5         23.3202   17.2933   64.2199 H         1             0.1005
     26 H6         22.9383   17.0152   62.5037 H         1             0.0995
     27 H7         19.0667   12.5893   65.0046 H         1             0.1697
     28 H8         23.9094   12.4366   63.9414 H         1             0.1871
     29 H9         17.6012   14.3685   66.9717 H         1             0.1417
     30 H10        15.2321   14.8634   67.4117 H         1             0.1421
     31 H11        14.7852   16.3342   63.4300 H         1             0.1403
     32 H12        17.1550   15.8540   62.9779 H         1             0.1406
@<TRIPOS>BOND
     1    1    2 1 
     2    1   21 1 
     3    1   22 1 
     4    1   23 1 
     5    2    3 2 
     6    2    4 1 
     7    4   13 1 
     8    4    5 2 
     9    5    6 1 
    10    5    7 1 
    11    6   24 1 
    12    6   25 1 
    13    6   26 1 
    14    7   11 1 
    15    7    8 1 
    16    8    9 2 
    17    9   10 1 
    18    9   14 1 
    19   10   11 2 
    20   10   27 1 
    21   11   12 1 
    22   12   13 2 
    23   13   28 1 
    24   14   20 ar
    25   14   15 ar
    26   15   16 ar
    27   15   29 1 
    28   16   17 ar
    29   16   30 1 
    30   17   18 1 
    31   17   19 ar
    32   19   20 ar
    33   19   31 1 
    34   20   32 1 
##########                 Name:             E3551061
##########          Protonation:                  100
##########               SMILES:   c1ccc2c(c1)c(c[nH]2)C(=O)COC(=O)c3ccccc3O
##########            Long Name:   [2-(1H-indol-3-yl)-2-oxo-ethyl]
##########          FlexRecCode: 1
##########               Number:                  478
##########   Ligand Source File: /raidb/db2/rgc/leads-emolecules-300/leads-emolecules-2g-0000265.db2.gz
##########           GlobalRank: 2826
##########                 Rank:                    1
##########               Setnum:                  246
##########             Matchnum:                 3364
##########                Cloud:                    1
##########        Electrostatic:           -13.141758
##########        Van der Waals:           -33.417519
##########  Ligand Polar Desolv:            10.109716
########## Ligand Apolar Desolv:            -4.428473
##########      Internal Energy:             0.000000
##########      Receptor Energy: 0.0
########## Receptor Desolvation:             0.000000
########## Receptor Hydrophobic:             0.000000
##########         Total Energy: -40.88
##########        Ligand Charge:             0.000000
##########            Arbitrary:    +999.9990
##########     heavy atom count:   22
##########           pose count:    1
##########        Ligand Energy:             0.000000
# num electro vdwattr vdwrepu polsolv apolsol rdesolv rhydroe totalscore fullpol fullapo
#   1   -1.59   -1.63    0.56    0.73    0.22    0.00    0.00      -1.71    1.63    0.50
#   2    0.10   -1.48    0.25   -0.19   -0.13    0.00    0.00      -1.44   -0.44   -0.31
#   3    0.48   -1.47    0.21   -0.03   -0.19    0.00    0.00      -0.99   -0.07   -0.46
#   4    0.16   -2.24    1.13   -0.04   -0.18    0.00    0.00      -1.17   -0.11   -0.47
#   5    0.08   -2.56    1.55   -0.04   -0.21    0.00    0.00      -1.18   -0.10   -0.47
#   6   -0.05   -2.18    0.89    0.07   -0.22    0.00    0.00      -1.49    0.15   -0.45
#   7   -0.39   -1.65    0.40    0.41   -0.19    0.00    0.00      -1.43    0.87   -0.41
#   8    2.55   -1.62    0.32   -1.67   -0.09    0.00    0.00      -0.51   -2.89   -0.16
#   9   -1.80   -1.76    0.29    2.12   -0.35    0.00    0.00      -1.49    3.44   -0.57
#  10   -3.35   -1.34    0.14    1.08    0.09    0.00    0.00      -3.38    2.01    0.16
#  11    0.22   -1.36    0.37   -0.02   -0.07    0.00    0.00      -0.87   -0.04   -0.11
#  12    6.37   -2.30    0.47   -1.42   -0.20    0.00    0.00       2.91   -2.25   -0.31
#  13   -9.83   -4.51    4.34    3.36   -0.14    0.00    0.00      -6.78    5.64   -0.24
#  14   -3.13   -2.60    0.66    0.64   -0.28    0.00    0.00      -4.71    0.97   -0.43
#  15    0.58   -4.14    1.75    0.52   -0.66    0.00    0.00      -1.95    0.77   -0.97
#  16   -1.28   -5.07    3.06   -1.44    0.75    0.00    0.00      -3.97   -2.17    1.14
#  17    0.60   -2.94    0.91   -0.02   -0.51    0.00    0.00      -1.96   -0.03   -0.78
#  18   -1.02   -3.05    1.36   -0.05   -0.31    0.00    0.00      -3.08   -0.08   -0.48
#  19   -0.87   -2.17    0.48    0.03   -0.31    0.00    0.00      -2.84    0.05   -0.47
#  20   -1.22   -2.85    1.07    0.28   -0.29    0.00    0.00      -3.01    0.45   -0.47
#  21   -0.84   -2.91    1.20    0.49   -0.28    0.00    0.00      -2.34    0.81   -0.46
#  22   -0.68   -2.53    0.93    0.32   -0.27    0.00    0.00      -2.22    0.51   -0.43
#  23   -1.02   -0.03    0.00    0.09    0.39    0.00    0.00      -0.56    0.29    1.22
#  24   -0.83   -0.25    0.02    0.13   -0.08    0.00    0.00      -1.01    0.45   -0.28
#  25   -0.74   -0.65    0.65    0.29   -0.08    0.00    0.00      -0.53    1.07   -0.28
#  26   -0.11   -0.55    0.28    0.23   -0.10    0.00    0.00      -0.27    0.61   -0.28
#  27    0.32   -0.51    0.17   -0.22   -0.13    0.00    0.00      -0.38   -0.45   -0.26
#  28    0.97   -0.79    1.03    0.06   -0.12    0.00    0.00       1.15    0.14   -0.28
#  29    0.57   -0.47    0.13    0.03   -0.12    0.00    0.00       0.13    0.06   -0.28
#  30    0.26   -1.18    0.66    1.70   -0.18    0.00    0.00       1.26    2.58   -0.28
#  31   -1.84   -0.23    0.08    2.64    0.41    0.00    0.00       1.07    3.84    0.60
#  32    0.98   -1.30    2.34    0.43   -0.16    0.00    0.00       2.29    0.76   -0.28
#  33    0.92   -0.41    0.09    0.24   -0.15    0.00    0.00       0.69    0.46   -0.28
#  34    0.99   -0.93    0.57   -0.12   -0.15    0.00    0.00       0.36   -0.21   -0.28
#  35    1.28   -0.86    0.78   -0.52   -0.14    0.00    0.00       0.53   -0.94   -0.26
@<TRIPOS>MOLECULE
E3551061
   35    37     0     0     0
SMALL
USER_CHARGES


@<TRIPOS>ATOM
      1 O1         21.0341   17.3148   62.9376 O.3       1            -0.4796
      2 C1         22.0766   16.5035   63.2455 C.ar      1             0.1752
      3 C2         23.3684   17.0081   63.2709 C.ar      1            -0.1611
      4 C3         24.4284   16.1810   63.5844 C.ar      1            -0.0639
      5 C4         24.2121   14.8438   63.8760 C.ar      1            -0.1433
      6 C5         22.9359   14.3255   63.8561 C.ar      1            -0.0438
      7 C6         21.8527   15.1523   63.5450 C.ar      1            -0.1602
      8 C7         20.4840   14.6057   63.5272 C.2       1             0.5087
      9 O2         20.2995   13.4389   63.2428 O.2       1            -0.4904
     10 O3         19.4373   15.4000   63.8264 O.3       1            -0.3294
     11 C8         18.3007   14.7764   64.4277 C.3       1             0.0221
     12 C9         17.6023   15.7647   65.3257 C.2       1             0.4268
     13 O4         18.0354   16.8929   65.4396 O.2       1            -0.4437
     14 C10        16.4395   15.3768   66.0372 C.2       1            -0.2739
     15 C11        16.3865   14.8297   67.3015 C.2       1             0.1410
     16 N1         15.1041   14.5947   67.6391 N.pl3     1            -0.5649
     17 C12        14.2539   14.9731   66.6199 C.ar      1             0.0736
     18 C13        12.8704   14.9384   66.4751 C.ar      1            -0.1202
     19 C14        12.2887   15.3968   65.3133 C.ar      1            -0.1003
     20 C15        13.0696   15.8949   64.2806 C.ar      1            -0.1305
     21 C16        14.4413   15.9376   64.4052 C.ar      1            -0.0718
     22 C17        15.0413   15.4834   65.5763 C.ar      1            -0.0558
     23 H1         21.2894   18.2277   62.7464 H         1             0.3981
     24 H2         23.5452   18.0492   63.0448 H         1             0.1402
     25 H3         25.4323   16.5787   63.6022 H         1             0.1357
     26 H4         25.0480   14.2048   64.1199 H         1             0.1365
     27 H5         22.7722   13.2824   64.0837 H         1             0.1458
     28 H6         17.6141   14.4444   63.6491 H         1             0.1004
     29 H7         18.6259   13.9180   65.0155 H         1             0.1007
     30 H8         17.2427   14.6209   67.9258 H         1             0.1877
     31 H9         14.8173   14.2119   68.4830 H         1             0.4239
     32 H10        12.2531   14.5519   67.2726 H         1             0.1242
     33 H11        11.2145   15.3678   65.2056 H         1             0.1300
     34 H12        12.6007   16.2503   63.3750 H         1             0.1285
     35 H13        15.0476   16.3253   63.6000 H         1             0.1339
@<TRIPOS>BOND
     1    1    2 1 
     2    1   23 1 
     3    2    7 ar
     4    2    3 ar
     5    3    4 ar
     6    3   24 1 
     7    4    5 ar
     8    4   25 1 
     9    5    6 ar
    10    5   26 1 
    11    6    7 ar
    12    6   27 1 
    13    7    8 1 
    14    8    9 2 
    15    8   10 1 
    16   10   11 1 
    17   11   12 1 
    18   11   28 1 
    19   11   29 1 
    20   12   13 2 
    21   12   14 1 
    22   14   22 1 
    23   14   15 2 
    24   15   16 1 
    25   15   30 1 
    26   16   17 1 
    27   16   31 1 
    28   17   22 ar
    29   17   18 ar
    30   18   19 ar
    31   18   32 1 
    32   19   20 ar
    33   19   33 1 
    34   20   21 ar
    35   20   34 1 
    36   21   22 ar
    37   21   35 1 
##########                 Name:            E32401275
##########          Protonation:                   17
##########               SMILES:   C[C@H](Cc1cnccn1)Nc2cc([nH+]c(n2)N)OC(C)C
##########            Long Name:   sopropoxy-N4-[(1R)-1-methyl-2-pyrazin-2-yl-ethyl]pyrimidin-1-ium-2,4-diamine
##########          FlexRecCode: 1
##########               Number:                  373
##########   Ligand Source File: /raidb/db2/rgc/leads-emolecules-300/leads-emolecules-3-bn-0000020.db2.gz
##########           GlobalRank: 2826
##########                 Rank:                    1
##########               Setnum:                  207
##########             Matchnum:                  209
##########                Cloud:                    1
##########        Electrostatic:           -20.428944
##########        Van der Waals:           -24.870413
##########  Ligand Polar Desolv:             5.524584
########## Ligand Apolar Desolv:            -1.104080
##########      Internal Energy:             0.000000
##########      Receptor Energy: 0.0
########## Receptor Desolvation:             0.000000
########## Receptor Hydrophobic:             0.000000
##########         Total Energy: -40.88
##########        Ligand Charge:             1.000000
##########            Arbitrary:    +999.9990
##########     heavy atom count:   21
##########           pose count:    1
##########        Ligand Energy:             0.000000
# num electro vdwattr vdwrepu polsolv apolsol rdesolv rhydroe totalscore fullpol fullapo
#   1    0.25   -0.29    0.01   -0.51   -0.03    0.00    0.00      -0.58   -2.81   -0.19
#   2   -0.27   -0.39    0.02    0.24   -0.03    0.00    0.00      -0.42    1.11   -0.13
#   3    0.05   -0.61    0.07   -1.07   -0.05    0.00    0.00      -1.60   -3.85   -0.18
#   4    3.45   -0.80    0.11   -1.48    0.23    0.00    0.00       1.51   -5.37    0.84
#   5   -8.45   -1.30    0.25    2.96   -0.21    0.00    0.00      -6.75    9.06   -0.63
#   6    4.29   -0.88    0.06   -1.83   -0.13    0.00    0.00       1.51   -6.04   -0.42
#   7   -6.77   -0.97    0.05    3.50   -0.79    0.00    0.00      -4.97    9.24   -2.09
#   8    4.80   -1.01    0.07   -4.19    0.51    0.00    0.00       0.18  -11.58    1.40
#   9   -0.37   -0.80    0.08    1.14   -0.09    0.00    0.00      -0.04    2.77   -0.22
#  10   -0.33   -1.94    1.49   -1.37   -0.09    0.00    0.00      -2.24   -2.89   -0.19
#  11    0.03   -1.12    0.25   -0.53   -0.09    0.00    0.00      -1.46   -1.23   -0.21
#  12    0.11   -1.79    0.45    0.53   -0.32    0.00    0.00      -1.02    1.08   -0.65
#  13    0.07   -2.76    0.97    0.17   -0.52    0.00    0.00      -2.07    0.31   -0.95
#  14   -2.65   -4.76    3.35   -2.46    1.31    0.00    0.00      -5.22   -3.88    2.07
#  15    0.17   -2.97    0.73    0.05   -0.64    0.00    0.00      -2.66    0.08   -0.98
#  16    0.26   -1.80    0.27    0.30   -0.59    0.00    0.00      -1.56    0.49   -0.98
#  17   -1.91   -1.60    0.30   -2.72    1.02    0.00    0.00      -4.92   -5.03    1.89
#  18    8.80   -1.30    0.12   -5.08    0.92    0.00    0.00       3.46  -11.41    2.07
#  19  -15.78   -2.15    0.63    6.46   -2.21    0.00    0.00     -13.05   14.44   -4.94
#  20   18.12   -3.18    1.50  -10.41    0.54    0.00    0.00       6.58  -18.21    0.95
#  21   16.45   -2.56    1.16   -5.26    0.57    0.00    0.00      10.35  -13.36    1.44
#  22  -14.33   -0.09    0.01    4.87    0.15    0.00    0.00      -9.40   12.02    0.37
#  23   -0.19   -0.07    0.00    0.13   -0.02    0.00    0.00      -0.15    1.91   -0.28
#  24   -0.15   -0.10    0.00    0.09   -0.03    0.00    0.00      -0.17    1.01   -0.28
#  25    0.08   -0.10    0.00    0.08   -0.03    0.00    0.00       0.04    0.73   -0.28
#  26   -0.25   -0.13    0.01    0.46   -0.03    0.00    0.00       0.06    3.37   -0.22
#  27   -0.30   -0.52    0.49    0.20   -0.07    0.00    0.00      -0.20    0.80   -0.28
#  28    0.15   -0.18    0.02    0.36   -0.05    0.00    0.00       0.30    1.98   -0.25
#  29   -0.33   -0.13    0.00    0.27   -0.04    0.00    0.00      -0.21    2.16   -0.28
#  30   -1.85   -0.12    0.00    0.42   -0.03    0.00    0.00      -1.57    3.44   -0.22
#  31   -3.07   -0.02    0.00    1.35    0.10    0.00    0.00      -1.63    7.49    0.58
#  32   -0.42   -0.32    0.17    0.40   -0.05    0.00    0.00      -0.21    1.71   -0.22
#  33    0.53   -0.70    0.67    0.45   -0.10    0.00    0.00       0.86    1.20   -0.26
#  34    0.13   -1.07    1.39    0.71   -0.14    0.00    0.00       1.01    1.39   -0.28
#  35   -0.10   -0.57    0.31    0.46   -0.11    0.00    0.00       0.00    1.18   -0.28
#  36   -0.27   -0.23    0.02    0.64   -0.07    0.00    0.00       0.10    2.59   -0.27
#  37    0.26   -0.88    1.21    0.79   -0.11    0.00    0.00       1.26    1.98   -0.28
#  38   -0.48   -0.66    0.41    1.25   -0.12    0.00    0.00       0.40    2.81   -0.28
#  39   -0.23   -1.00    0.76    1.33   -0.18    0.00    0.00       0.68    2.06   -0.28
#  40    1.09   -0.37    0.08    1.15   -0.11    0.00    0.00       1.84    2.80   -0.28
#  41   -7.28   -0.04    0.00    5.35    0.30    0.00    0.00      -1.66   10.41    0.59
#  42  -13.76   -0.12    0.02    6.31    0.30    0.00    0.00      -7.24   12.21    0.59
@<TRIPOS>MOLECULE
E32401275
   42    43     0     0     0
SMALL
USER_CHARGES


@<TRIPOS>ATOM
      1 C1         27.2191   22.7077   60.5200 C.3       1            -0.1536
      2 C2         25.8516   22.4127   61.1394 C.3       1             0.0578
      3 C3         25.2266   23.7163   61.6404 C.3       1            -0.1927
      4 O1         24.9996   21.8236   60.1549 O.3       1            -0.2626
      5 C4         24.0537   20.9594   60.5973 C.ar      1             0.4387
      6 C5         24.4188   19.8070   61.2822 C.ar      1            -0.3040
      7 C6         23.4133   18.9482   61.7187 C.ar      1             0.5379
      8 N1         23.7304   17.7872   62.4062 N.pl3     1            -0.6508
      9 C7         22.6646   16.8909   62.8608 C.3       1             0.1369
     10 C8         21.7371   17.6448   63.8161 C.3       1            -0.1755
     11 C9         23.2804   15.6932   63.5869 C.3       1            -0.0755
     12 C10        22.2866   14.5608   63.6202 C.ar      1             0.0645
     13 C11        22.7312   13.2502   63.6354 C.ar      1             0.0571
     14 N2         21.8599   12.2575   63.6651 N.ar      1            -0.4302
     15 C12        20.5639   12.5159   63.6803 C.ar      1             0.0533
     16 C13        20.1196   13.8259   63.6652 C.ar      1             0.0559
     17 N3         20.9911   14.8191   63.6405 N.ar      1            -0.4344
     18 N4         22.1436   19.2574   61.4669 N.ar      1            -0.5819
     19 C14        21.8336   20.3653   60.8110 C.ar      1             0.6808
     20 N5         20.5025   20.6545   60.5678 N.pl3     1            -0.7917
     21 N6         22.7648   21.2065   60.3862 N.ar      1            -0.6144
     22 H1         22.5028   22.0111   59.9120 H         1             0.4350
     23 H2         27.6643   21.7789   60.1631 H         1             0.0972
     24 H3         27.0983   23.3972   59.6845 H         1             0.0776
     25 H4         27.8688   23.1570   61.2710 H         1             0.0834
     26 H5         25.9723   21.7231   61.9749 H         1             0.0788
     27 H6         24.2524   23.5061   62.0817 H         1             0.0902
     28 H7         25.8763   24.1657   62.3913 H         1             0.0563
     29 H8         25.1059   24.4060   60.8049 H         1             0.0984
     30 H9         25.4582   19.5825   61.4713 H         1             0.1894
     31 H10        24.6581   17.5683   62.5864 H         1             0.4238
     32 H11        22.0934   16.5402   62.0011 H         1             0.1122
     33 H12        20.9441   16.9779   64.1542 H         1             0.0672
     34 H13        22.3083   17.9954   64.6757 H         1             0.0883
     35 H14        21.2986   18.4980   63.2988 H         1             0.0729
     36 H15        24.1794   15.3723   63.0608 H         1             0.1005
     37 H16        23.5388   15.9799   64.6062 H         1             0.1198
     38 H17        23.7903   13.0392   63.6225 H         1             0.1702
     39 H18        19.8518   11.7043   63.7042 H         1             0.1741
     40 H19        19.0604   14.0370   63.6776 H         1             0.1739
     41 H20        19.8103   20.0492   60.8768 H         1             0.4466
     42 H21        20.2613   21.4626   60.0885 H         1             0.4286
@<TRIPOS>BOND
     1    1    2 1 
     2    1   23 1 
     3    1   24 1 
     4    1   25 1 
     5    2    3 1 
     6    2    4 1 
     7    2   26 1 
     8    3   27 1 
     9    3   28 1 
    10    3   29 1 
    11    4    5 1 
    12    5   21 ar
    13    5    6 ar
    14    6    7 ar
    15    6   30 1 
    16    7    8 1 
    17    7   18 ar
    18    8    9 1 
    19    8   31 1 
    20    9   10 1 
    21    9   11 1 
    22    9   32 1 
    23   10   33 1 
    24   10   34 1 
    25   10   35 1 
    26   11   12 1 
    27   11   36 1 
    28   11   37 1 
    29   12   17 ar
    30   12   13 ar
    31   13   14 ar
    32   13   38 1 
    33   14   15 ar
    34   15   16 ar
    35   15   39 1 
    36   16   17 ar
    37   16   40 1 
    38   18   19 ar
    39   19   20 1 
    40   19   21 ar
    41   20   41 1 
    42   20   42 1 
    43   21   22 1 
##########                 Name:            E46623795
##########          Protonation:                   47
##########               SMILES:   CCc1c(c(nc([nH+]1)N)N[C@H](c2ccccc2)C(=O)N)C
##########            Long Name:   -2-[(2-amino-6-ethyl-5-methyl-pyrimidin-1-ium-4-yl)amino]-2-phenyl-acetamide
##########          FlexRecCode: 1
##########               Number:                  259
##########   Ligand Source File: /raidb/db2/rgc/leads-emolecules-300/leads-emolecules-2a-0000323.db2.gz
##########           GlobalRank: 2839
##########                 Rank:                    1
##########               Setnum:                  269
##########             Matchnum:                  813
##########                Cloud:                    1
##########        Electrostatic:           -16.455181
##########        Van der Waals:           -30.110247
##########  Ligand Polar Desolv:             8.055099
########## Ligand Apolar Desolv:            -2.358935
##########      Internal Energy:             0.000000
##########      Receptor Energy: 0.0
########## Receptor Desolvation:             0.000000
########## Receptor Hydrophobic:             0.000000
##########         Total Energy: -40.87
##########        Ligand Charge:             1.000000
##########            Arbitrary:    +999.9990
##########     heavy atom count:   21
##########           pose count:    1
##########        Ligand Energy:             0.000000
# num electro vdwattr vdwrepu polsolv apolsol rdesolv rhydroe totalscore fullpol fullapo
#   1    3.69   -1.12    0.28   -1.14   -0.07    0.00    0.00       1.64   -3.17   -0.19
#   2    1.62   -0.81    0.11   -0.78   -0.09    0.00    0.00       0.05   -2.09   -0.23
#   3   -3.33   -1.25    0.11    2.53   -0.30    0.00    0.00      -2.23    5.69   -0.67
#   4    1.24   -1.39    0.20   -2.02   -0.18    0.00    0.00      -2.15   -4.65   -0.41
#   5    0.31   -1.24    0.21   -0.97   -0.08    0.00    0.00      -1.77   -2.18   -0.18
#   6    0.80   -2.14    1.39    3.68   -0.90    0.00    0.00       2.83    8.19   -2.01
#   7   -5.36   -1.91    0.53   -4.63    0.62    0.00    0.00     -10.74   -9.96    1.33
#   8    1.21   -1.27    0.33    1.49   -0.13    0.00    0.00       1.63    2.85   -0.25
#   9    2.01   -2.06    0.97    3.38   -0.37    0.00    0.00       3.93    5.67   -0.62
#  10   -2.41   -1.81    0.38   -6.25    1.09    0.00    0.00      -8.99  -10.97    1.92
#  11   -1.67   -2.39    0.52   -2.68    0.26    0.00    0.00      -5.96   -4.17    0.41
#  12   -1.37   -2.06    0.47   -0.83   -0.20    0.00    0.00      -3.98   -1.43   -0.34
#  13   -0.90   -2.29    0.73   -0.87   -0.25    0.00    0.00      -3.58   -1.46   -0.42
#  14   -0.74   -3.11    1.62   -0.96   -0.30    0.00    0.00      -3.49   -1.50   -0.47
#  15   -1.13   -2.98    1.95   -0.92   -0.30    0.00    0.00      -3.38   -1.44   -0.47
#  16   -1.54   -2.95    1.03   -0.95   -0.28    0.00    0.00      -4.70   -1.61   -0.47
#  17   -1.43   -3.13    1.27   -0.77   -0.26    0.00    0.00      -4.33   -1.32   -0.45
#  18    2.02   -2.83    1.99   -5.44    0.94    0.00    0.00      -3.32  -10.70    1.85
#  19   -9.78   -2.27    0.57    7.57   -2.78    0.00    0.00      -6.70   13.43   -4.94
#  20   14.79   -4.64    3.04  -11.52    0.61    0.00    0.00       2.28  -17.80    0.95
#  21   11.12   -1.67    0.21   -6.44    0.50    0.00    0.00       3.72  -12.45    0.97
#  22  -11.81   -0.04    0.00    5.00    0.22    0.00    0.00      -6.62   12.80    0.57
#  23   -1.25   -0.20    0.02    0.20   -0.05    0.00    0.00      -1.29    0.92   -0.23
#  24   -2.01   -0.74    1.03    0.39   -0.10    0.00    0.00      -1.43    1.16   -0.28
#  25   -2.51   -0.55    0.27    0.50   -0.10    0.00    0.00      -2.39    1.37   -0.28
#  26   -1.57   -0.14    0.00    0.39   -0.03    0.00    0.00      -1.35    3.08   -0.24
#  27   -1.42   -0.55    0.36    1.07   -0.08    0.00    0.00      -0.63    3.65   -0.28
#  28    0.15   -0.49    0.17    0.79   -0.11    0.00    0.00       0.51    2.04   -0.28
#  29   -0.40   -0.26    0.03    0.28   -0.06    0.00    0.00      -0.42    1.08   -0.23
#  30   -0.30   -0.65    0.18    0.95   -0.09    0.00    0.00       0.09    2.02   -0.20
#  31    3.77   -0.04    0.00    2.43    0.12    0.00    0.00       6.28    6.76    0.33
#  32    0.64   -0.70    0.47    1.30   -0.12    0.00    0.00       1.59    2.82   -0.26
#  33    1.07   -0.02    0.00    2.26    0.19    0.00    0.00       3.50    6.88    0.57
#  34    1.19   -0.03    0.00    2.53    0.29    0.00    0.00       3.98    5.15    0.60
#  35    0.69   -0.48    0.19    0.78   -0.10    0.00    0.00       1.07    1.79   -0.24
#  36   -0.03   -0.81    0.60    0.83   -0.16    0.00    0.00       0.42    1.41   -0.28
#  37    1.34   -0.48    0.17    0.56   -0.12    0.00    0.00       1.46    1.28   -0.28
#  38    1.40   -0.79    0.58    1.04   -0.16    0.00    0.00       2.07    1.88   -0.28
#  39    1.44   -1.11    1.52    1.84   -0.16    0.00    0.00       3.53    3.17   -0.28
#  40   -6.44   -0.11    0.01    6.40    0.38    0.00    0.00       0.24   10.03    0.59
#  41   -9.58   -0.11    0.01    7.03    0.35    0.00    0.00      -2.29   11.86    0.59
@<TRIPOS>MOLECULE
E46623795
   41    42     0     0     0
SMALL
USER_CHARGES


@<TRIPOS>ATOM
      1 C1         23.4641   20.8582   60.3775 C.3       1            -0.1581
      2 C2         23.4240   19.8688   61.5440 C.3       1            -0.1024
      3 C3         22.1566   19.0568   61.4708 C.ar      1             0.2327
      4 C4         21.8884   18.0942   62.4244 C.ar      1            -0.2224
      5 C5         22.8533   17.8378   63.5533 C.3       1            -0.1139
      6 C6         20.7025   17.3645   62.3190 C.ar      1             0.5343
      7 N1         20.3918   16.3896   63.2529 N.pl3     1            -0.6363
      8 C7         19.5882   15.2291   62.8607 C.3       1             0.1682
      9 C8         20.3801   13.9681   63.0930 C.2       1             0.5157
     10 N2         21.6301   14.0397   63.5921 N.am      1            -0.8400
     11 O1         19.8926   12.8891   62.8311 O.2       1            -0.5307
     12 C9         18.3273   15.1895   63.6852 C.ar      1            -0.1197
     13 C10        18.3099   14.5108   64.8893 C.ar      1            -0.1098
     14 C11        17.1533   14.4745   65.6455 C.ar      1            -0.1068
     15 C12        16.0143   15.1173   65.1979 C.ar      1            -0.0987
     16 C13        16.0321   15.7969   63.9943 C.ar      1            -0.1075
     17 C14        17.1899   15.8368   63.2400 C.ar      1            -0.1003
     18 N3         19.8758   17.6193   61.3097 N.ar      1            -0.5745
     19 C15        20.1701   18.5510   60.4157 C.ar      1             0.6637
     20 N4         19.2879   18.7922   59.3770 N.pl3     1            -0.7942
     21 N5         21.2853   19.2623   60.4942 N.ar      1            -0.5682
     22 H1         21.4684   19.9401   59.8248 H         1             0.4401
     23 H2         24.3808   21.4455   60.4305 H         1             0.0727
     24 H3         23.4373   20.3105   59.4356 H         1             0.0632
     25 H4         22.6026   21.5234   60.4356 H         1             0.0888
     26 H5         24.2857   19.2037   61.4860 H         1             0.1228
     27 H6         23.4507   20.4166   62.4860 H         1             0.1029
     28 H7         22.4621   17.0465   64.1930 H         1             0.0936
     29 H8         23.8168   17.5322   63.1454 H         1             0.0796
     30 H9         22.9788   18.7490   64.1380 H         1             0.0947
     31 H10        20.7064   16.4753   64.1665 H         1             0.4314
     32 H11        19.3296   15.3064   61.8047 H         1             0.1366
     33 H12        22.0199   14.9029   63.8017 H         1             0.4055
     34 H13        22.1398   13.2281   63.7416 H         1             0.4118
     35 H14        19.1997   14.0084   65.2389 H         1             0.1206
     36 H15        17.1394   13.9435   66.5859 H         1             0.1330
     37 H16        15.1105   15.0884   65.7884 H         1             0.1331
     38 H17        15.1422   16.2989   63.6444 H         1             0.1347
     39 H18        17.2048   16.3709   62.3015 H         1             0.1309
     40 H19        18.4659   18.2815   59.3105 H         1             0.4432
     41 H20        19.4915   19.4719   58.7157 H         1             0.4297
@<TRIPOS>BOND
     1    1    2 1 
     2    1   23 1 
     3    1   24 1 
     4    1   25 1 
     5    2    3 1 
     6    2   26 1 
     7    2   27 1 
     8    3   21 ar
     9    3    4 ar
    10    4    5 1 
    11    4    6 ar
    12    5   28 1 
    13    5   29 1 
    14    5   30 1 
    15    6    7 1 
    16    6   18 ar
    17    7    8 1 
    18    7   31 1 
    19    8    9 1 
    20    8   12 1 
    21    8   32 1 
    22    9   10 am
    23    9   11 2 
    24   10   33 1 
    25   10   34 1 
    26   12   17 ar
    27   12   13 ar
    28   13   14 ar
    29   13   35 1 
    30   14   15 ar
    31   14   36 1 
    32   15   16 ar
    33   15   37 1 
    34   16   17 ar
    35   16   38 1 
    36   17   39 1 
    37   18   19 ar
    38   19   20 1 
    39   19   21 ar
    40   20   40 1 
    41   20   41 1 
    42   21   22 1 
##########                 Name:            E36957250
##########          Protonation:                   37
##########               SMILES:   Cc1cnn(c1)C[C@@H]2CCC[NH+]2CC(=O)Nc3cccnc3
##########            Long Name:   -[(4-methylpyrazol-1-yl)methyl]pyrrolidin-1-ium-1-yl]-N-(3-pyridyl)acetamide
##########          FlexRecCode: 1
##########               Number:                   60
##########   Ligand Source File: /raidb/db2/rgc/leads-emolecules-300/leads-emolecules-3-by-0000020.db2.gz
##########           GlobalRank: 2852
##########                 Rank:                    1
##########               Setnum:                  250
##########             Matchnum:                  530
##########                Cloud:                    1
##########        Electrostatic:           -19.635809
##########        Van der Waals:           -25.570993
##########  Ligand Polar Desolv:             6.687633
########## Ligand Apolar Desolv:            -2.337161
##########      Internal Energy:             0.000000
##########      Receptor Energy: 0.0
########## Receptor Desolvation:             0.000000
########## Receptor Hydrophobic:             0.000000
##########         Total Energy: -40.86
##########        Ligand Charge:             1.000000
##########            Arbitrary:    +999.9990
##########     heavy atom count:   22
##########           pose count:    1
##########        Ligand Energy:             0.000000
# num electro vdwattr vdwrepu polsolv apolsol rdesolv rhydroe totalscore fullpol fullapo
#   1    0.11   -0.84    0.21   -0.37   -0.08    0.00    0.00      -0.98   -0.97   -0.21
#   2    0.47   -1.15    0.21   -1.26   -0.13    0.00    0.00      -1.86   -4.07   -0.43
#   3   -1.05   -1.87    1.05    0.47   -0.31    0.00    0.00      -1.71    1.47   -0.98
#   4    5.73   -1.85    1.19   -2.43    0.35    0.00    0.00       2.99   -7.71    1.11
#   5   -2.41   -1.00    0.25    0.85   -0.15    0.00    0.00      -2.46    2.43   -0.43
#   6   -0.17   -0.62    0.05    0.34   -0.09    0.00    0.00      -0.48    1.13   -0.28
#   7    1.57   -0.46    0.04   -0.79   -0.06    0.00    0.00       0.29   -3.38   -0.27
#   8    2.26   -0.97    0.30   -1.15   -0.09    0.00    0.00       0.34   -3.64   -0.29
#   9    0.10   -0.62    0.06   -0.03   -0.13    0.00    0.00      -0.61   -0.08   -0.42
#  10    4.45   -0.72    0.03   -3.63    0.07    0.00    0.00       0.20   -9.92    0.18
#  11   -6.56   -0.01    0.00    2.09    0.07    0.00    0.00      -4.41   10.07    0.36
#  12    0.11   -0.95    0.10    0.04   -0.13    0.00    0.00      -0.82    0.11   -0.33
#  13   -0.90   -1.32    0.16    4.35   -0.25    0.00    0.00       2.05   10.32   -0.59
#  14    0.03   -1.27    0.20   -3.97    0.12    0.00    0.00      -4.89   -9.22    0.29
#  15   -0.09   -1.66    0.30   -5.11    0.71    0.00    0.00      -5.85  -11.90    1.65
#  16    0.13   -1.77    0.43    0.66   -0.33    0.00    0.00      -0.87    1.36   -0.68
#  17   -0.33   -1.63    0.33   -0.58   -0.23    0.00    0.00      -2.43   -1.03   -0.41
#  18   -0.63   -1.95    0.31   -0.89   -0.29    0.00    0.00      -3.46   -1.45   -0.48
#  19    0.37   -3.47    1.15    0.10   -0.65    0.00    0.00      -2.49    0.15   -0.98
#  20   -2.80   -5.01    3.93   -1.94    1.26    0.00    0.00      -4.56   -3.11    2.03
#  21    0.08   -2.62    0.89    0.28   -0.52    0.00    0.00      -1.88    0.52   -0.96
#  22    0.93   -1.31    0.30   -1.56    0.26    0.00    0.00      -1.38   -5.87    0.96
#  23    0.22   -1.10    0.18    0.13   -0.30    0.00    0.00      -0.88    0.45   -1.05
#  24   -0.37   -0.19    0.01    0.13   -0.05    0.00    0.00      -0.47    0.72   -0.28
#  25    0.13   -0.36    0.17    0.23   -0.09    0.00    0.00       0.08    0.73   -0.28
#  26   -0.03   -0.34    0.18    0.10   -0.07    0.00    0.00      -0.15    0.39   -0.28
#  27   -4.37   -0.61    0.57    1.39   -0.09    0.00    0.00      -3.11    4.58   -0.28
#  28   -2.52   -0.49    0.30    0.99   -0.09    0.00    0.00      -1.80    3.06   -0.28
#  29   -3.81   -0.42    0.19    1.58   -0.08    0.00    0.00      -2.53    5.32   -0.28
#  30   -1.19   -0.31    0.05    1.42   -0.06    0.00    0.00      -0.09    5.79   -0.26
#  31   -1.35   -0.15    0.02    0.39   -0.03    0.00    0.00      -1.12    3.07   -0.27
#  32   -0.83   -0.10    0.00    0.41   -0.03    0.00    0.00      -0.54    3.87   -0.28
#  33   -3.41   -0.93    1.54    0.86   -0.10    0.00    0.00      -2.04    2.52   -0.28
#  34   -1.06   -0.26    0.04    0.81   -0.07    0.00    0.00      -0.54    3.25   -0.28
#  35   -1.50   -0.39    0.19    0.89   -0.08    0.00    0.00      -0.87    3.26   -0.28
#  36   -1.01   -0.13    0.01    0.35   -0.03    0.00    0.00      -0.81    2.75   -0.22
#  37   -0.95   -0.50    0.22    2.44   -0.09    0.00    0.00       1.12    7.57   -0.28
#  38   -0.87   -0.44    0.07    1.95   -0.10    0.00    0.00       0.60    4.73   -0.25
#  39   -0.02   -0.04    0.00    3.36    0.19    0.00    0.00       3.49   10.24    0.59
#  40    1.15   -0.29    0.03    0.61   -0.07    0.00    0.00       1.44    1.96   -0.22
#  41    0.74   -0.48    0.21    0.80   -0.13    0.00    0.00       1.13    1.71   -0.28
#  42   -0.10   -1.31    1.29    0.78   -0.18    0.00    0.00       0.48    1.19   -0.28
#  43   -0.43   -0.54    0.23    1.10   -0.12    0.00    0.00       0.24    2.62   -0.28
#  44    0.53   -0.19    0.03    0.49   -0.06    0.00    0.00       0.80    2.37   -0.28
@<TRIPOS>MOLECULE
E36957250
   44    46     0     0     0
SMALL
USER_CHARGES


@<TRIPOS>ATOM
      1 C1         24.4312   25.8514   61.3439 C.3       1            -0.0849
      2 C2         24.5478   24.3569   61.4978 C.2       1            -0.2202
      3 C3         23.7376   23.4326   60.9318 C.2       1             0.0727
      4 N1         24.1743   22.2140   61.3132 N.pl3     1            -0.4060
      5 C4         23.5860   20.9285   60.9291 C.3       1             0.1199
      6 C5         24.3799   19.7910   61.5747 C.3       1             0.0134
      7 C6         25.6191   19.4631   60.7251 C.3       1            -0.1334
      8 C7         25.0800   18.3194   59.8426 C.3       1            -0.1412
      9 C8         24.3284   17.5224   60.9182 C.3       1            -0.0094
     10 N2         23.5698   18.5680   61.6111 N.4       1            -0.3722
     11 H1         22.6909   18.7240   61.1406 H         1             0.4393
     12 C9         23.3267   18.1700   63.0040 C.3       1            -0.0190
     13 C10        22.4945   16.9139   63.0296 C.2       1             0.5080
     14 O1         21.3910   16.9070   62.5262 O.2       1            -0.5070
     15 N3         22.9764   15.7980   63.6119 N.am      1            -0.6428
     16 C11        22.2036   14.6315   63.6357 C.ar      1             0.0680
     17 C12        20.8129   14.7055   63.6568 C.ar      1            -0.0705
     18 C13        20.0913   13.5234   63.6794 C.ar      1            -0.1520
     19 C14        20.7694   12.3184   63.6802 C.ar      1             0.1016
     20 N4         22.0873   12.2825   63.6599 N.ar      1            -0.4615
     21 C15        22.8117   13.3834   63.6327 C.ar      1             0.0956
     22 N5         25.2898   22.3954   62.1409 N.2       1            -0.3476
     23 C16        25.5164   23.6797   62.2459 C.2       1             0.0902
     24 H2         23.5808   26.0854   60.7033 H         1             0.0691
     25 H3         24.2847   26.3072   62.3231 H         1             0.0680
     26 H4         25.3435   26.2426   60.8938 H         1             0.0706
     27 H5         22.8928   23.6340   60.2900 H         1             0.1834
     28 H6         22.5508   20.8869   61.2680 H         1             0.1091
     29 H7         23.6177   20.8239   59.8447 H         1             0.1447
     30 H8         24.6801   20.0714   62.5844 H         1             0.1452
     31 H9         25.9167   20.3189   60.1193 H         1             0.1078
     32 H10        26.4436   19.1205   61.3504 H         1             0.1210
     33 H11        24.4019   18.6927   59.0753 H         1             0.1233
     34 H12        25.8905   17.7355   59.4064 H         1             0.0983
     35 H13        23.6584   16.7927   60.4639 H         1             0.1374
     36 H14        25.0260   17.0334   61.5981 H         1             0.1343
     37 H15        24.2793   17.9850   63.5005 H         1             0.1572
     38 H16        22.7957   18.9683   63.5226 H         1             0.1567
     39 H17        23.8588   15.8035   64.0145 H         1             0.4214
     40 H18        20.3096   15.6611   63.6560 H         1             0.1473
     41 H19        19.0117   13.5428   63.6966 H         1             0.1458
     42 H20        20.2117   11.3937   63.6981 H         1             0.1664
     43 H21        23.8893   13.3138   63.6122 H         1             0.1606
     44 H22        26.3120   24.1379   62.8146 H         1             0.1915
@<TRIPOS>BOND
     1    1    2 1 
     2    1   24 1 
     3    1   25 1 
     4    1   26 1 
     5    2   23 1 
     6    2    3 2 
     7    3    4 1 
     8    3   27 1 
     9    4    5 1 
    10    4   22 1 
    11    5    6 1 
    12    5   28 1 
    13    5   29 1 
    14    6   10 1 
    15    6    7 1 
    16    6   30 1 
    17    7    8 1 
    18    7   31 1 
    19    7   32 1 
    20    8    9 1 
    21    8   33 1 
    22    8   34 1 
    23    9   10 1 
    24    9   35 1 
    25    9   36 1 
    26   10   11 1 
    27   10   12 1 
    28   12   13 1 
    29   12   37 1 
    30   12   38 1 
    31   13   14 2 
    32   13   15 am
    33   15   16 1 
    34   15   39 1 
    35   16   21 ar
    36   16   17 ar
    37   17   18 ar
    38   17   40 1 
    39   18   19 ar
    40   18   41 1 
    41   19   20 ar
    42   19   42 1 
    43   20   21 ar
    44   21   43 1 
    45   22   23 2 
    46   23   44 1 
##########                 Name:            E46068680
##########          Protonation:                   84
##########               SMILES:   Cc1cc(nc([nH+]1)N)NCCc2csc(n2)CSC
##########            Long Name:   4-[2-[2-(methylsulfanylmethyl)thiazol-4-yl]ethyl]pyrimidin-1-ium-2,4-diamine
##########          FlexRecCode: 1
##########               Number:                  462
##########   Ligand Source File: /raidb/db2/rgc/leads-emolecules-300/leads-emolecules-2h-0000020.db2.gz
##########           GlobalRank: 2873
##########                 Rank:                    1
##########               Setnum:                  107
##########             Matchnum:                 1992
##########                Cloud:                    1
##########        Electrostatic:           -19.458290
##########        Van der Waals:           -23.952051
##########  Ligand Polar Desolv:             4.929040
########## Ligand Apolar Desolv:            -2.358574
##########      Internal Energy:             0.000000
##########      Receptor Energy: 0.0
########## Receptor Desolvation:             0.000000
########## Receptor Hydrophobic:             0.000000
##########         Total Energy: -40.84
##########        Ligand Charge:             1.000000
##########            Arbitrary:    +999.9990
##########     heavy atom count:   19
##########           pose count:    1
##########        Ligand Energy:             0.000000
# num electro vdwattr vdwrepu polsolv apolsol rdesolv rhydroe totalscore fullpol fullapo
#   1   -1.78   -1.64    0.45   -0.66    0.01    0.00    0.00      -3.62   -1.05    0.02
#   2   -2.97   -4.50    3.07   -1.45   -0.48    0.00    0.00      -6.33   -2.43   -0.80
#   3   -0.04   -1.75    0.66    0.07   -0.08    0.00    0.00      -1.14    0.12   -0.13
#   4    0.33   -2.25    0.67    0.14   -0.36    0.00    0.00      -1.48    0.23   -0.60
#   5   -2.76   -1.82    0.35   -2.53    1.11    0.00    0.00      -5.65   -4.30    1.88
#   6    0.17   -1.93    0.48    0.23   -0.40    0.00    0.00      -1.45    0.40   -0.68
#   7    0.00   -1.17    0.29   -0.35   -0.11    0.00    0.00      -1.34   -0.73   -0.24
#   8    0.00   -0.97    0.15    0.95   -0.16    0.00    0.00      -0.02    2.27   -0.37
#   9    2.37   -1.45    0.23   -4.28    0.64    0.00    0.00      -2.49  -11.47    1.72
#  10   -4.07   -0.91    0.07    2.81   -0.68    0.00    0.00      -2.78    8.67   -2.10
#  11    6.45   -0.93    0.06   -4.46    0.82    0.00    0.00       1.94  -11.26    2.07
#  12  -12.75   -1.24    0.16    5.22   -1.88    0.00    0.00     -10.49   13.71   -4.94
#  13   20.36   -2.23    0.70   -8.44    0.45    0.00    0.00      10.84  -17.84    0.95
#  14   12.05   -1.69    0.84   -4.13    0.31    0.00    0.00       7.39  -13.01    0.97
#  15  -14.19   -0.10    0.03    3.69    0.16    0.00    0.00     -10.41   13.04    0.58
#  16   -2.86   -0.76    0.07    1.62   -0.19    0.00    0.00      -2.12    6.36   -0.75
#  17    0.99   -0.40    0.03   -0.72   -0.04    0.00    0.00      -0.15   -3.36   -0.21
#  18    2.30   -0.77    0.08   -1.57   -0.10    0.00    0.00      -0.07   -6.15   -0.41
#  19   -0.83   -3.40    1.45   -1.42   -0.17    0.00    0.00      -4.37   -2.23   -0.26
#  20    0.19   -6.24    4.10    0.41   -0.54    0.00    0.00      -2.07    0.62   -0.81
#  21    1.25   -0.51    0.11    0.52   -0.14    0.00    0.00       1.24    1.07   -0.28
#  22    1.01   -0.62    0.49    0.52   -0.13    0.00    0.00       1.26    1.15   -0.28
#  23    1.53   -0.71    0.46    0.42   -0.12    0.00    0.00       1.58    0.96   -0.28
#  24    0.94   -0.49    0.11    0.58   -0.14    0.00    0.00       1.01    1.15   -0.28
#  25    0.17   -1.14    1.72    0.65   -0.14    0.00    0.00       1.26    1.27   -0.28
#  26    0.07   -0.53    0.33    0.50   -0.11    0.00    0.00       0.27    1.27   -0.28
#  27   -0.31   -0.46    0.34    0.77   -0.09    0.00    0.00       0.24    2.30   -0.28
#  28   -0.09   -0.27    0.08    0.38   -0.07    0.00    0.00       0.04    1.54   -0.27
#  29    0.33   -0.52    0.25    0.39   -0.10    0.00    0.00       0.35    1.04   -0.27
#  30   -1.33   -0.04    0.00    2.20    0.17    0.00    0.00       1.00    7.36    0.58
#  31   -9.54   -0.03    0.00    3.77    0.23    0.00    0.00      -5.56    9.77    0.59
#  32  -14.41   -0.08    0.01    5.34    0.27    0.00    0.00      -8.88   11.75    0.59
#  33   -0.40   -0.06    0.00    0.18   -0.02    0.00    0.00      -0.30    3.12   -0.28
#  34   -0.81   -0.21    0.03    0.53   -0.06    0.00    0.00      -0.51    2.56   -0.28
#  35   -0.62   -0.09    0.00    0.30   -0.03    0.00    0.00      -0.43    3.28   -0.28
#  36   -1.19   -0.18    0.04    0.49   -0.03    0.00    0.00      -0.86    3.66   -0.24
#  37    0.99   -1.44    1.65    2.23   -0.17    0.00    0.00       3.26    3.65   -0.28
@<TRIPOS>MOLECULE
E46068680
   37    38     0     0     0
SMALL
USER_CHARGES


@<TRIPOS>ATOM
      1 C1         15.7489   15.7002   65.1936 C.3       1            -0.1231
      2 S1         17.1194   15.1933   64.1186 S.3       1            -0.2342
      3 C2         18.2096   14.2449   65.2152 C.3       1            -0.0066
      4 C3         19.4049   13.7583   64.4370 C.2       1             0.0638
      5 N1         20.5586   14.3528   64.2616 N.2       1            -0.5050
      6 C4         21.5159   13.7953   63.5474 C.2       1             0.0559
      7 C5         22.8451   14.4757   63.3437 C.3       1            -0.0534
      8 C6         22.6509   15.9931   63.3722 C.3       1             0.1103
      9 N2         23.9430   16.6546   63.1741 N.pl3     1            -0.6572
     10 C7         24.1290   17.5016   62.0939 C.ar      1             0.5209
     11 N3         23.0852   18.0400   61.4714 N.ar      1            -0.5802
     12 C8         23.2601   18.8506   60.4387 C.ar      1             0.6658
     13 N4         22.1523   19.3950   59.8129 N.pl3     1            -0.7945
     14 N5         24.4694   19.1536   59.9900 N.ar      1            -0.5755
     15 H1         24.5621   19.7508   59.2312 H         1             0.4402
     16 C9         25.5539   18.6530   60.5633 C.ar      1             0.2448
     17 C10        26.9230   19.0069   60.0424 C.3       1            -0.1405
     18 C11        25.4162   17.8070   61.6465 C.ar      1            -0.2747
     19 C12        21.2501   12.5798   63.0042 C.2       1            -0.2190
     20 S2         19.5834   12.3158   63.5883 S.3       1             0.1643
     21 H2         15.0315   16.2838   64.6169 H         1             0.0817
     22 H3         15.2569   14.8150   65.5967 H         1             0.1095
     23 H4         16.1350   16.3062   66.0132 H         1             0.0831
     24 H5         18.5440   14.8815   66.0344 H         1             0.1155
     25 H6         17.6659   13.3903   65.6178 H         1             0.1111
     26 H7         23.5295   14.1820   64.1397 H         1             0.0947
     27 H8         23.2604   14.1806   62.3801 H         1             0.0955
     28 H9         21.9667   16.2868   62.5761 H         1             0.0880
     29 H10        22.2355   16.2883   64.3356 H         1             0.0993
     30 H11        24.6682   16.4994   63.7993 H         1             0.4252
     31 H12        21.2613   19.1814   60.1318 H         1             0.4442
     32 H13        22.2665   19.9901   59.0555 H         1             0.4295
     33 H14        27.6811   18.5008   60.6403 H         1             0.1179
     34 H15        27.0091   18.6906   59.0029 H         1             0.1187
     35 H16        27.0689   20.0850   60.1075 H         1             0.0995
     36 H17        26.2841   17.3886   62.1343 H         1             0.1831
     37 H18        21.8747   11.9465   62.3918 H         1             0.2013
@<TRIPOS>BOND
     1    1    2 1 
     2    1   21 1 
     3    1   22 1 
     4    1   23 1 
     5    2    3 1 
     6    3    4 1 
     7    3   24 1 
     8    3   25 1 
     9    4   20 1 
    10    4    5 2 
    11    5    6 1 
    12    6    7 1 
    13    6   19 2 
    14    7    8 1 
    15    7   26 1 
    16    7   27 1 
    17    8    9 1 
    18    8   28 1 
    19    8   29 1 
    20    9   10 1 
    21    9   30 1 
    22   10   18 ar
    23   10   11 ar
    24   11   12 ar
    25   12   13 1 
    26   12   14 ar
    27   13   31 1 
    28   13   32 1 
    29   14   15 1 
    30   14   16 ar
    31   16   17 1 
    32   16   18 ar
    33   17   33 1 
    34   17   34 1 
    35   17   35 1 
    36   18   36 1 
    37   19   20 1 
    38   19   37 1 
##########                 Name:            E25899965
##########          Protonation:                   30
##########               SMILES:   [H]/N=C(/c1cccc(c1)C)\NOC(=O)COc2ccccc2
##########            Long Name:   [(3-methylbenzenecarboximidoyl)amino]
##########          FlexRecCode: 1
##########               Number:                  363
##########   Ligand Source File: /raidb/db2/rgc/leads-emolecules-300/leads-emolecules-2a-0000081.db2.gz
##########           GlobalRank: 2885
##########                 Rank:                    1
##########               Setnum:                   92
##########             Matchnum:                 5904
##########                Cloud:                    1
##########        Electrostatic:            -8.179828
##########        Van der Waals:           -32.841011
##########  Ligand Polar Desolv:             5.126441
########## Ligand Apolar Desolv:            -4.939023
##########      Internal Energy:             0.000000
##########      Receptor Energy: 0.0
########## Receptor Desolvation:             0.000000
########## Receptor Hydrophobic:             0.000000
##########         Total Energy: -40.83
##########        Ligand Charge:             0.000000
##########            Arbitrary:    +999.9990
##########     heavy atom count:   21
##########           pose count:    1
##########        Ligand Energy:             0.000000
# num electro vdwattr vdwrepu polsolv apolsol rdesolv rhydroe totalscore fullpol fullapo
#   1   -1.27   -1.75    0.55   -0.11   -0.13    0.00    0.00      -2.72   -0.18   -0.20
#   2   -1.13   -2.61    1.19    0.03   -0.25    0.00    0.00      -2.78    0.05   -0.40
#   3   -0.81   -2.89    0.81   -0.07   -0.29    0.00    0.00      -3.26   -0.11   -0.45
#   4   -0.36   -3.91    1.34   -0.09   -0.32    0.00    0.00      -3.33   -0.13   -0.47
#   5   -0.60   -3.03    0.68    0.04   -0.29    0.00    0.00      -3.19    0.06   -0.44
#   6   -0.57   -2.16    0.41    0.14   -0.26    0.00    0.00      -2.44    0.22   -0.41
#   7   -0.84   -2.55    0.84    0.13   -0.26    0.00    0.00      -2.69    0.21   -0.43
#   8    5.21   -1.86    0.32   -1.02   -1.27    0.00    0.00       1.38   -1.78   -2.20
#   9  -11.82   -2.37    1.09    1.97    0.69    0.00    0.00     -10.44    3.72    1.30
#  10   -3.99   -2.27    0.82    0.96    0.37    0.00    0.00      -4.11    1.68    0.64
#  11   -0.64   -2.26    1.30    0.10   -0.34    0.00    0.00      -1.85    0.18   -0.64
#  12    1.69   -2.72    1.46   -0.43   -0.10    0.00    0.00      -0.09   -0.76   -0.17
#  13   -2.55   -3.98    2.44    1.89   -0.38    0.00    0.00      -2.59    3.00   -0.60
#  14   -0.03   -1.43    0.43    0.07   -0.05    0.00    0.00      -1.01    0.14   -0.11
#  15    0.32   -1.21    0.16    0.35    0.20    0.00    0.00      -0.17    0.82    0.48
#  16   -0.57   -1.31    0.40   -0.06   -0.11    0.00    0.00      -1.65   -0.15   -0.31
#  17    1.68   -1.26    0.38   -0.09   -0.14    0.00    0.00       0.56   -0.29   -0.42
#  18    0.96   -1.65    0.66   -0.05   -0.17    0.00    0.00      -0.25   -0.15   -0.47
#  19    1.17   -2.05    0.84   -0.06   -0.18    0.00    0.00      -0.29   -0.16   -0.47
#  20    0.29   -1.71    0.47    0.01   -0.19    0.00    0.00      -1.13    0.03   -0.47
#  21    0.69   -1.33    0.23    0.16   -0.18    0.00    0.00      -0.44    0.40   -0.46
#  22    0.75   -0.38    0.06    0.08   -0.14    0.00    0.00       0.38    0.17   -0.28
#  23    0.73   -1.00    1.08    0.15   -0.15    0.00    0.00       0.81    0.28   -0.28
#  24    0.76   -0.68    0.43    0.04   -0.14    0.00    0.00       0.41    0.08   -0.28
#  25    0.98   -0.58    0.15    0.33   -0.15    0.00    0.00       0.73    0.63   -0.28
#  26   -0.49   -1.39    1.35    0.43   -0.19    0.00    0.00      -0.29    0.64   -0.28
#  27    0.51   -0.87    0.45    0.09   -0.14    0.00    0.00       0.05    0.15   -0.22
#  28    2.08   -0.53    0.10   -0.24   -0.14    0.00    0.00       1.27   -0.46   -0.27
#  29    3.64   -0.03    0.00   -0.48    0.19    0.00    0.00       3.33   -1.35    0.53
#  30    1.78   -0.05    0.00   -0.42    0.17    0.00    0.00       1.48   -0.90    0.37
#  31   -0.05   -0.63    0.46    0.37   -0.11    0.00    0.00       0.04    0.88   -0.26
#  32   -0.42   -0.60    0.38    0.38   -0.11    0.00    0.00      -0.38    0.88   -0.26
#  33   -1.01   -0.18    0.01    0.14   -0.04    0.00    0.00      -1.07    0.86   -0.22
#  34   -2.50   -0.35    0.09    0.22   -0.08    0.00    0.00      -2.63    0.73   -0.28
#  35   -0.93   -0.58    0.24    0.18   -0.11    0.00    0.00      -1.20    0.49   -0.28
#  36   -0.04   -0.56    0.50    0.10   -0.10    0.00    0.00      -0.10    0.29   -0.28
#  37   -0.76   -0.32    0.10   -0.11   -0.09    0.00    0.00      -1.18   -0.34   -0.28
@<TRIPOS>MOLECULE
E25899965
   37    38     0     0     0
SMALL
USER_CHARGES


@<TRIPOS>ATOM
      1 C1         13.9031   15.9755   64.5531 C.3       1            -0.1169
      2 C2         15.1634   15.5280   65.2480 C.ar      1            -0.0891
      3 C3         15.1046   15.0536   66.5464 C.ar      1            -0.0981
      4 C4         16.2570   14.6416   67.1908 C.ar      1            -0.1153
      5 C5         17.4733   14.7018   66.5412 C.ar      1            -0.1049
      6 C6         17.5388   15.1785   65.2328 C.ar      1            -0.0497
      7 C7         16.3725   15.5872   64.5862 C.ar      1            -0.0583
      8 C8         18.8410   15.2460   64.5302 C.2       1             0.4714
      9 N1         19.0463   16.1610   63.6235 N.2       1            -0.7300
     10 N2         19.8314   14.3462   64.8332 N.pl3     1            -0.6086
     11 O1         21.1911   14.7198   64.7041 O.3       1            -0.1152
     12 C9         22.0081   13.7041   64.4013 C.2       1             0.4483
     13 O2         21.7436   12.5811   64.7746 O.2       1            -0.4684
     14 C10        23.2569   13.9560   63.5962 C.3       1             0.0757
     15 O3         23.3463   15.3464   63.2783 O.3       1            -0.2937
     16 C11        23.9736   15.6749   62.1183 C.ar      1             0.1236
     17 C12        23.6034   16.8202   61.4283 C.ar      1            -0.2094
     18 C13        24.2428   17.1521   60.2496 C.ar      1            -0.0787
     19 C14        25.2507   16.3437   59.7572 C.ar      1            -0.1519
     20 C15        25.6212   15.2016   60.4427 C.ar      1            -0.0785
     21 C16        24.9891   14.8686   61.6251 C.ar      1            -0.1432
     22 H1         13.0548   15.8568   65.2272 H         1             0.0740
     23 H2         13.9974   17.0236   64.2689 H         1             0.0693
     24 H3         13.7456   15.3697   63.6607 H         1             0.0706
     25 H4         14.1551   15.0050   67.0588 H         1             0.1286
     26 H5         16.2050   14.2726   68.2044 H         1             0.1314
     27 H6         18.3726   14.3805   67.0457 H         1             0.1223
     28 H7         16.4165   15.9533   63.5711 H         1             0.1436
     29 H8         19.8991   16.2053   63.1635 H         1             0.3463
     30 H9         19.6000   13.4540   65.1357 H         1             0.4233
     31 H10        24.1299   13.6592   64.1774 H         1             0.1146
     32 H11        23.2188   13.3745   62.6751 H         1             0.1145
     33 H12        22.8157   17.4515   61.8122 H         1             0.1293
     34 H13        23.9551   18.0435   59.7122 H         1             0.1286
     35 H14        25.7492   16.6047   58.8354 H         1             0.1272
     36 H15        26.4085   14.5716   60.0557 H         1             0.1333
     37 H16        25.2818   13.9787   62.1623 H         1             0.1341
@<TRIPOS>BOND
     1    1    2 1 
     2    1   22 1 
     3    1   23 1 
     4    1   24 1 
     5    2    7 ar
     6    2    3 ar
     7    3    4 ar
     8    3   25 1 
     9    4    5 ar
    10    4   26 1 
    11    5    6 ar
    12    5   27 1 
    13    6    7 ar
    14    6    8 1 
    15    7   28 1 
    16    8    9 2 
    17    8   10 1 
    18    9   29 1 
    19   10   11 1 
    20   10   30 1 
    21   11   12 1 
    22   12   13 2 
    23   12   14 1 
    24   14   15 1 
    25   14   31 1 
    26   14   32 1 
    27   15   16 1 
    28   16   21 ar
    29   16   17 ar
    30   17   18 ar
    31   17   33 1 
    32   18   19 ar
    33   18   34 1 
    34   19   20 ar
    35   19   35 1 
    36   20   21 ar
    37   20   36 1 
    38   21   37 1 
##########                 Name:            E43158003
##########          Protonation:                   78
##########               SMILES:   C[NH+](Cc1ccoc1)C[C@@H]2CC[C@H](O2)Cc3cccnc3
##########            Long Name:   hyl-methyl-[[(2S,5S)-5-(3-pyridylmethyl)tetrahydrofuran-2-yl]methyl]ammonium
##########          FlexRecCode: 1
##########               Number:                   25
##########   Ligand Source File: /raidb/db2/rgc/leads-emolecules-300/leads-emolecules-2b-0000176.db2.gz
##########           GlobalRank: 2903
##########                 Rank:                    1
##########               Setnum:                   55
##########             Matchnum:                   69
##########                Cloud:                    1
##########        Electrostatic:           -15.784787
##########        Van der Waals:           -27.127481
##########  Ligand Polar Desolv:             5.260562
########## Ligand Apolar Desolv:            -3.172748
##########      Internal Energy:             0.000000
##########      Receptor Energy: 0.0
########## Receptor Desolvation:             0.000000
########## Receptor Hydrophobic:             0.000000
##########         Total Energy: -40.82
##########        Ligand Charge:             1.000000
##########            Arbitrary:    +999.9990
##########     heavy atom count:   21
##########           pose count:    1
##########        Ligand Energy:             0.000000
# num electro vdwattr vdwrepu polsolv apolsol rdesolv rhydroe totalscore fullpol fullapo
#   1    0.65   -0.75    0.06   -0.68   -0.17    0.00    0.00      -0.88   -1.78   -0.45
#   2    5.65   -0.84    0.07   -3.96    0.12    0.00    0.00       1.05  -10.95    0.33
#   3   -4.78   -0.02    0.00    2.78    0.11    0.00    0.00      -1.90   12.84    0.52
#   4    0.25   -0.62    0.06   -0.02   -0.10    0.00    0.00      -0.43   -0.08   -0.32
#   5   -0.36   -0.53    0.03    0.38   -0.04    0.00    0.00      -0.52    1.28   -0.15
#   6    0.59   -0.46    0.02   -0.93   -0.08    0.00    0.00      -0.86   -3.26   -0.27
#   7    0.51   -0.59    0.04   -1.08   -0.09    0.00    0.00      -1.22   -3.09   -0.27
#   8   -0.43   -0.96    0.19    0.82   -0.06    0.00    0.00      -0.44    1.97   -0.15
#   9    0.13   -1.34    0.43   -0.53   -0.09    0.00    0.00      -1.40   -1.20   -0.21
#  10   -0.09   -1.98    0.56   -0.67   -0.17    0.00    0.00      -2.35   -1.35   -0.35
#  11   -0.15   -1.67    0.39   -0.36   -0.21    0.00    0.00      -2.00   -0.78   -0.45
#  12   -0.97   -1.60    0.30   -1.00   -0.26    0.00    0.00      -3.52   -1.88   -0.48
#  13    0.44   -1.83    0.28    0.14   -0.60    0.00    0.00      -1.57    0.23   -0.98
#  14   -1.89   -2.67    0.52   -1.97    1.31    0.00    0.00      -4.71   -3.09    2.05
#  15    0.29   -3.06    1.11    0.23   -0.56    0.00    0.00      -2.00    0.39   -0.95
#  16    2.11   -1.33    0.53   -3.10    0.48    0.00    0.00      -1.32   -8.41    1.29
#  17   -1.97   -1.51    0.56    1.17   -0.17    0.00    0.00      -1.92    2.67   -0.39
#  18    6.29   -2.41    1.02   -2.43   -0.17    0.00    0.00       2.29   -4.73   -0.33
#  19   -0.61   -3.40    2.64   -0.34   -0.14    0.00    0.00      -1.85   -0.68   -0.27
#  20    3.14   -2.74    1.03   -1.96    0.15    0.00    0.00      -0.39   -3.23    0.25
#  21    0.15   -2.87    0.72   -1.11   -0.18    0.00    0.00      -3.29   -1.69   -0.27
#  22    4.32   -3.19    1.80   -2.17   -0.26    0.00    0.00       0.50   -3.65   -0.44
#  23   -1.65   -0.20    0.02    0.92   -0.05    0.00    0.00      -0.97    4.84   -0.28
#  24   -1.68   -0.33    0.06    0.77   -0.07    0.00    0.00      -1.24    2.57   -0.22
#  25   -0.95   -0.27    0.03    1.05   -0.06    0.00    0.00      -0.20    3.76   -0.22
#  26   -1.92   -0.35    0.09    1.38   -0.08    0.00    0.00      -0.88    4.57   -0.28
#  27   -1.63   -0.12    0.01    0.75   -0.03    0.00    0.00      -1.03    6.27   -0.28
#  28   -0.70   -0.23    0.05    0.63   -0.04    0.00    0.00      -0.30    3.58   -0.22
#  29   -0.25   -0.23    0.04    0.54   -0.06    0.00    0.00       0.03    2.45   -0.27
#  30   -0.32   -0.09    0.00    0.19   -0.02    0.00    0.00      -0.24    2.21   -0.28
#  31   -0.24   -0.23    0.02    0.31   -0.07    0.00    0.00      -0.21    1.23   -0.28
#  32   -0.23   -0.18    0.01    0.22   -0.05    0.00    0.00      -0.22    1.20   -0.28
#  33   -0.68   -0.70    0.88    0.50   -0.11    0.00    0.00      -0.11    1.27   -0.28
#  34   -0.14   -0.56    0.26    0.48   -0.11    0.00    0.00      -0.06    1.24   -0.28
#  35   -0.03   -0.60    0.44    0.48   -0.09    0.00    0.00       0.19    1.44   -0.28
#  36    0.14   -0.28    0.03    0.90   -0.08    0.00    0.00       0.72    3.03   -0.28
#  37    1.38   -0.30    0.04    0.79   -0.09    0.00    0.00       1.81    2.36   -0.28
#  38    0.76   -0.45    0.15    0.59   -0.13    0.00    0.00       0.92    1.26   -0.28
#  39    0.41   -1.41    1.81    0.86   -0.16    0.00    0.00       1.51    1.56   -0.28
#  40   -4.34   -0.74    1.14    1.82   -0.09    0.00    0.00      -2.22    5.39   -0.28
#  41   -3.90   -0.84    0.57    2.48   -0.14    0.00    0.00      -1.83    5.12   -0.28
#  42   -6.34   -0.73    0.53    2.20   -0.12    0.00    0.00      -4.46    5.30   -0.28
#  43   -3.56   -0.75    0.29    1.93   -0.18    0.00    0.00      -2.28    2.98   -0.28
#  44   -3.17   -0.99    1.02    2.27   -0.15    0.00    0.00      -1.03    4.14   -0.28
@<TRIPOS>MOLECULE
E43158003
   44    46     0     0     0
SMALL
USER_CHARGES


@<TRIPOS>ATOM
      1 C1         23.4067   19.2435   61.9832 C.3       1            -0.0531
      2 N1         23.3802   18.3117   60.8477 N.4       1            -0.3818
      3 H1         22.7783   17.5321   61.0665 H         1             0.4289
      4 C2         24.7398   17.8220   60.5843 C.3       1            -0.0207
      5 C3         25.0818   16.7082   61.5759 C.3       1             0.0533
      6 C4         26.4097   16.0339   61.2102 C.3       1            -0.1466
      7 C5         26.3137   14.7919   62.0921 C.3       1            -0.1528
      8 C6         24.8112   14.5261   62.1385 C.3       1             0.0893
      9 C7         24.3366   14.4724   63.5921 C.3       1            -0.0772
     10 C8         22.8488   14.2350   63.6264 C.ar      1            -0.1402
     11 C9         21.9668   15.3050   63.6243 C.ar      1            -0.0638
     12 C10        20.6067   15.0390   63.6566 C.ar      1            -0.1737
     13 C11        20.1779   13.7254   63.6896 C.ar      1             0.0998
     14 N2         21.0456   12.7325   63.6909 N.ar      1            -0.4801
     15 C12        22.3462   12.9482   63.6546 C.ar      1             0.1023
     16 O1         24.1628   15.6062   61.4529 O.3       1            -0.3762
     17 C13        22.8702   19.0051   59.6572 C.3       1             0.0769
     18 C14        21.4753   19.5075   59.9275 C.2       1            -0.2574
     19 C15        21.1396   20.7075   60.4338 C.2       1             0.0229
     20 O2         19.8010   20.7714   60.5224 O.3       1            -0.1588
     21 C16        19.2675   19.6221   60.0773 C.2       1            -0.0087
     22 C17        20.2681   18.8100   59.6920 C.2       1            -0.2093
     23 H2         24.0567   20.0858   61.7469 H         1             0.1217
     24 H3         22.3978   19.6068   62.1787 H         1             0.1253
     25 H4         23.7852   18.7290   62.8665 H         1             0.1223
     26 H5         24.7953   17.4330   59.5676 H         1             0.1336
     27 H6         25.4496   18.6411   60.6991 H         1             0.1397
     28 H7         25.1024   17.0886   62.5972 H         1             0.1057
     29 H8         26.4442   15.7699   60.1533 H         1             0.0891
     30 H9         27.2612   16.6548   61.4884 H         1             0.0988
     31 H10        26.8413   13.9531   61.6381 H         1             0.0984
     32 H11        26.7019   14.9949   63.0902 H         1             0.0902
     33 H12        24.5858   13.5833   61.6402 H         1             0.0826
     34 H13        24.8462   13.6605   64.1109 H         1             0.0981
     35 H14        24.5651   15.4180   64.0840 H         1             0.0866
     36 H15        22.3309   16.3215   63.5985 H         1             0.1314
     37 H16        19.8911   15.8480   63.6564 H         1             0.1355
     38 H17        19.1200   13.5097   63.7148 H         1             0.1576
     39 H18        23.0263   12.1093   63.6515 H         1             0.1542
     40 H19        23.5203   19.8473   59.4209 H         1             0.1369
     41 H20        22.8503   18.3137   58.8147 H         1             0.1345
     42 H21        21.8295   21.4873   60.7210 H         1             0.2108
     43 H22        18.2135   19.3907   60.0324 H         1             0.2146
     44 H23        20.1689   17.8150   59.2837 H         1             0.1595
@<TRIPOS>BOND
     1    1    2 1 
     2    1   23 1 
     3    1   24 1 
     4    1   25 1 
     5    2    3 1 
     6    2    4 1 
     7    2   17 1 
     8    4    5 1 
     9    4   26 1 
    10    4   27 1 
    11    5   16 1 
    12    5    6 1 
    13    5   28 1 
    14    6    7 1 
    15    6   29 1 
    16    6   30 1 
    17    7    8 1 
    18    7   31 1 
    19    7   32 1 
    20    8    9 1 
    21    8   16 1 
    22    8   33 1 
    23    9   10 1 
    24    9   34 1 
    25    9   35 1 
    26   10   15 ar
    27   10   11 ar
    28   11   12 ar
    29   11   36 1 
    30   12   13 ar
    31   12   37 1 
    32   13   14 ar
    33   13   38 1 
    34   14   15 ar
    35   15   39 1 
    36   17   18 1 
    37   17   40 1 
    38   17   41 1 
    39   18   22 1 
    40   18   19 2 
    41   19   20 1 
    42   19   42 1 
    43   20   21 1 
    44   21   22 2 
    45   21   43 1 
    46   22   44 1 
##########                 Name:            E36556008
##########          Protonation:                  100
##########               SMILES:   CC1([C@H](C[C@H]1[NH2+]CC2CC2)Cc3cc(on3)CCO)C
##########            Long Name:   3-[[5-(2-hydroxyethyl)isoxazol-3-yl]methyl]-2,2-dimethyl-cyclobutyl]ammonium
##########          FlexRecCode: 1
##########               Number:                  815
##########   Ligand Source File: /raidb/db2/rgc/leads-emolecules-300/leads-lt300-emolecules-1i-0000274.db2.gz
##########           GlobalRank: 2903
##########                 Rank:                    1
##########               Setnum:                  296
##########             Matchnum:                 4605
##########                Cloud:                    1
##########        Electrostatic:           -26.170277
##########        Van der Waals:           -21.156723
##########  Ligand Polar Desolv:             7.984575
########## Ligand Apolar Desolv:            -1.482403
##########      Internal Energy:             0.000000
##########      Receptor Energy: 0.0
########## Receptor Desolvation:             0.000000
########## Receptor Hydrophobic:             0.000000
##########         Total Energy: -40.82
##########        Ligand Charge:             1.000000
##########            Arbitrary:    +999.9990
##########     heavy atom count:   20
##########           pose count:    1
##########        Ligand Energy:             0.000000
# num electro vdwattr vdwrepu polsolv apolsol rdesolv rhydroe totalscore fullpol fullapo
#   1    2.56   -1.20    0.18   -1.89   -0.10    0.00    0.00      -0.45   -3.51   -0.18
#   2    1.26   -0.76    0.05   -0.44   -0.05    0.00    0.00       0.06   -1.01   -0.11
#   3    2.64   -1.04    0.27   -1.79   -0.05    0.00    0.00       0.03   -4.73   -0.14
#   4    0.74   -0.97    0.11   -1.06   -0.08    0.00    0.00      -1.27   -2.52   -0.20
#   5    0.14   -0.86    0.08   -0.32   -0.08    0.00    0.00      -1.05   -0.76   -0.20
#   6    0.21   -1.58    0.32    0.67   -0.32    0.00    0.00      -0.71    1.53   -0.72
#   7   -2.73   -2.26    1.16   -1.33    0.57    0.00    0.00      -4.59   -2.91    1.24
#   8   -0.73   -1.37    0.17   -0.48   -0.07    0.00    0.00      -2.48   -0.94   -0.14
#   9    0.51   -1.63    0.28    0.20   -0.18    0.00    0.00      -0.82    0.35   -0.31
#  10   -0.24   -1.55    0.49   -0.27   -0.16    0.00    0.00      -1.73   -0.43   -0.26
#  11    0.20   -2.15    0.59    0.44   -0.10    0.00    0.00      -1.02    0.66   -0.15
#  12   -2.11   -3.82    2.11   -2.60    1.14    0.00    0.00      -5.29   -4.03    1.76
#  13   -0.90   -1.75    0.43   -1.41   -0.23    0.00    0.00      -3.87   -2.99   -0.49
#  14    1.67   -1.29    0.40   -1.38   -0.11    0.00    0.00      -0.72   -3.62   -0.30
#  15    0.09   -1.05    0.24    0.80   -0.12    0.00    0.00      -0.05    1.99   -0.30
#  16   12.05   -1.59    0.89   -5.51    0.18    0.00    0.00       6.02  -15.67    0.50
#  17  -10.08   -0.03    0.00    3.35    0.10    0.00    0.00      -6.65   15.98    0.49
#  18  -13.92   -0.07    0.01    6.24    0.20    0.00    0.00      -7.54   16.44    0.54
#  19   -0.41   -0.70    0.09    0.42   -0.12    0.00    0.00      -0.72    1.42   -0.42
#  20    2.03   -0.75    0.23   -0.85   -0.10    0.00    0.00       0.55   -3.18   -0.39
#  21    0.83   -0.55    0.04   -1.23   -0.13    0.00    0.00      -1.04   -4.09   -0.43
#  22    0.43   -0.35    0.01   -0.91   -0.09    0.00    0.00      -0.92   -4.27   -0.43
#  23   -0.80   -0.41    0.08    0.99   -0.12    0.00    0.00      -0.26    2.33   -0.28
#  24   -1.15   -0.47    0.26    0.28   -0.12    0.00    0.00      -1.20    0.65   -0.28
#  25   -1.80   -0.65    0.36    0.39   -0.12    0.00    0.00      -1.81    0.87   -0.27
#  26   -0.86   -0.16    0.01    0.63   -0.05    0.00    0.00      -0.43    3.58   -0.26
#  27   -0.83   -0.57    0.52    0.87   -0.07    0.00    0.00      -0.09    2.74   -0.22
#  28   -2.31   -0.60    0.30    0.47   -0.12    0.00    0.00      -2.26    1.14   -0.28
#  29   -0.74   -0.57    0.23    0.46   -0.11    0.00    0.00      -0.72    1.16   -0.27
#  30   -0.60   -0.17    0.01    0.41   -0.05    0.00    0.00      -0.41    2.25   -0.28
#  31   -0.20   -0.46    0.10    1.08   -0.09    0.00    0.00       0.43    2.82   -0.23
#  32    0.48   -0.88    1.55    0.24   -0.15    0.00    0.00       1.23    0.45   -0.28
#  33    0.43   -0.52    0.18    0.57   -0.13    0.00    0.00       0.53    1.23   -0.28
#  34   -0.14   -1.37    1.79    0.55   -0.19    0.00    0.00       0.65    0.83   -0.28
#  35    0.18   -0.67    0.25    0.19   -0.17    0.00    0.00      -0.21    0.31   -0.28
#  36    0.34   -0.08    0.01    2.17    0.62    0.00    0.00       3.06    4.35    1.24
#  37    0.32   -0.37    0.10    0.94   -0.10    0.00    0.00       0.89    2.64   -0.28
#  38   -1.22   -1.30    2.03    0.54   -0.11    0.00    0.00      -0.06    1.38   -0.28
#  39   -1.02   -0.22    0.02    0.75   -0.05    0.00    0.00      -0.52    3.60   -0.24
#  40   -4.03   -0.61    0.44    2.05   -0.10    0.00    0.00      -2.25    5.55   -0.28
#  41   -2.14   -0.27    0.06    1.14   -0.07    0.00    0.00      -1.29    4.65   -0.27
#  42   -1.24   -0.15    0.01    0.69   -0.04    0.00    0.00      -0.73    4.35   -0.28
#  43   -1.81   -0.71    1.43    1.10   -0.07    0.00    0.00      -0.07    4.21   -0.28
#  44   -0.45   -0.22    0.03    0.30   -0.07    0.00    0.00      -0.42    1.20   -0.28
#  45   -0.60   -0.14    0.01    0.33   -0.04    0.00    0.00      -0.44    2.33   -0.28
#  46   -0.10   -0.08    0.00    0.14   -0.02    0.00    0.00      -0.06    1.73   -0.28
#  47   -0.10   -0.10    0.00    0.09   -0.03    0.00    0.00      -0.14    0.87   -0.28
@<TRIPOS>MOLECULE
E36556008
   47    49     0     0     0
SMALL
USER_CHARGES


@<TRIPOS>ATOM
      1 C1         20.8531   18.7533   60.4422 C.3       1            -0.1504
      2 C2         22.2803   18.8367   60.9877 C.3       1            -0.0786
      3 C3         23.2432   17.8808   60.2809 C.3       1            -0.1624
      4 C4         22.3580   18.7696   62.5221 C.3       1            -0.0872
      5 C5         22.8645   17.4266   63.0519 C.3       1            -0.0386
      6 C6         21.6938   16.5108   63.3002 C.2       1             0.1028
      7 N1         20.4393   16.8010   63.1004 N.2       1            -0.3175
      8 O1         19.6677   15.6683   63.4571 O.3       1            -0.0731
      9 C7         20.5103   14.7095   63.8707 C.2       1             0.0914
     10 C8         20.1216   13.3327   64.3444 C.3       1            -0.0602
     11 C9         20.0918   12.3730   63.1531 C.3       1             0.0819
     12 O2         21.3863   12.3216   62.5503 O.3       1            -0.5695
     13 C10        21.7649   15.1915   63.7824 C.2       1            -0.2840
     14 C11        23.4499   19.8490   62.4355 C.3       1            -0.1395
     15 C12        22.8130   20.2747   61.1021 C.3       1            -0.0042
     16 N2         23.7942   20.6230   60.0658 N.4       1            -0.4984
     17 H1         24.4081   19.8381   59.9067 H         1             0.4257
     18 H2         23.3121   20.8520   59.2095 H         1             0.4276
     19 C13        24.5835   21.7803   60.5080 C.3       1             0.0278
     20 C14        25.6055   22.1430   59.4286 C.3       1            -0.2159
     21 C15        25.6994   23.6114   59.0095 C.3       1            -0.1672
     22 C16        26.8118   22.9836   59.8518 C.3       1            -0.1493
     23 H3         20.5448   17.7092   60.3894 H         1             0.0658
     24 H4         20.1792   19.2984   61.1031 H         1             0.0795
     25 H5         20.8189   19.1931   59.4454 H         1             0.0712
     26 H6         24.2395   17.9851   60.7107 H         1             0.0648
     27 H7         22.8972   16.8552   60.4102 H         1             0.0719
     28 H8         23.2790   18.1210   59.2183 H         1             0.0947
     29 H9         21.4488   19.1055   63.0205 H         1             0.1142
     30 H10        23.5304   16.9741   62.3171 H         1             0.1040
     31 H11        23.4062   17.5848   63.9843 H         1             0.0969
     32 H12        20.8492   12.9813   65.0758 H         1             0.1030
     33 H13        19.1341   13.3720   64.8042 H         1             0.1118
     34 H14        19.8105   11.3772   63.4957 H         1             0.0536
     35 H15        19.3641   12.7246   62.4216 H         1             0.0537
     36 H16        21.7012   13.1748   62.2216 H         1             0.3914
     37 H17        22.6683   14.6583   64.0394 H         1             0.1621
     38 H18        23.3776   20.6068   63.2156 H         1             0.1060
     39 H19        24.4565   19.4444   62.3290 H         1             0.1063
     40 H20        22.0285   21.0236   61.2123 H         1             0.1624
     41 H21        23.9203   22.6281   60.6798 H         1             0.1303
     42 H22        25.1043   21.5330   61.4330 H         1             0.1333
     43 H23        25.7634   21.3883   58.6581 H         1             0.1250
     44 H24        25.9191   23.8230   57.9631 H         1             0.1101
     45 H25        25.0331   24.3192   59.5028 H         1             0.1062
     46 H26        26.8773   23.2783   60.8992 H         1             0.1080
     47 H27        27.7632   22.7823   59.3596 H         1             0.1124
@<TRIPOS>BOND
     1    1    2 1 
     2    1   23 1 
     3    1   24 1 
     4    1   25 1 
     5    2   15 1 
     6    2    3 1 
     7    2    4 1 
     8    3   26 1 
     9    3   27 1 
    10    3   28 1 
    11    4    5 1 
    12    4   14 1 
    13    4   29 1 
    14    5    6 1 
    15    5   30 1 
    16    5   31 1 
    17    6   13 1 
    18    6    7 2 
    19    7    8 1 
    20    8    9 1 
    21    9   10 1 
    22    9   13 2 
    23   10   11 1 
    24   10   32 1 
    25   10   33 1 
    26   11   12 1 
    27   11   34 1 
    28   11   35 1 
    29   12   36 1 
    30   13   37 1 
    31   14   15 1 
    32   14   38 1 
    33   14   39 1 
    34   15   16 1 
    35   15   40 1 
    36   16   17 1 
    37   16   18 1 
    38   16   19 1 
    39   19   20 1 
    40   19   41 1 
    41   19   42 1 
    42   20   22 1 
    43   20   21 1 
    44   20   43 1 
    45   21   22 1 
    46   21   44 1 
    47   21   45 1 
    48   22   46 1 
    49   22   47 1 
##########                 Name:            E43098012
##########          Protonation:                   97
##########               SMILES:   CCOc1cc(ccc1OC)CNC(=O)[C@@H]2CCCC[NH2+]2
##########            Long Name:   (2S)-N-[(3-ethoxy-4-methoxy-phenyl)methyl]piperidin-1-ium-2-carboxamide
##########          FlexRecCode: 1
##########               Number:                  433
##########   Ligand Source File: /raidb/db2/rgc/leads-emolecules-300/leads-emolecules-2f-0000056.db2.gz
##########           GlobalRank: 2948
##########                 Rank:                    1
##########               Setnum:                    9
##########             Matchnum:                  949
##########                Cloud:                    1
##########        Electrostatic:           -25.533781
##########        Van der Waals:           -23.456396
##########  Ligand Polar Desolv:            10.152576
########## Ligand Apolar Desolv:            -1.954681
##########      Internal Energy:             0.000000
##########      Receptor Energy: 0.0
########## Receptor Desolvation:             0.000000
########## Receptor Hydrophobic:             0.000000
##########         Total Energy: -40.79
##########        Ligand Charge:             1.000000
##########            Arbitrary:    +999.9990
##########     heavy atom count:   21
##########           pose count:    1
##########        Ligand Energy:             0.000000
# num electro vdwattr vdwrepu polsolv apolsol rdesolv rhydroe totalscore fullpol fullapo
#   1   -2.77   -1.66    0.49   -0.72   -0.13    0.00    0.00      -4.79   -1.18   -0.21
#   2    0.57   -1.24    0.21    0.21   -0.06    0.00    0.00      -0.32    0.37   -0.11
#   3   -2.90   -1.33    0.15   -0.74    0.31    0.00    0.00      -4.51   -1.42    0.60
#   4    0.50   -1.63    0.36    0.08   -0.16    0.00    0.00      -0.85    0.15   -0.31
#   5   -0.36   -1.71    0.41   -0.67   -0.17    0.00    0.00      -2.50   -1.54   -0.40
#   6    0.04   -1.76    0.44   -0.50   -0.16    0.00    0.00      -1.94   -1.17   -0.37
#   7   -0.59   -1.71    0.96    1.11   -0.17    0.00    0.00      -0.39    2.93   -0.44
#   8    4.85   -0.97    0.10   -4.30    0.67    0.00    0.00       0.37  -14.59    2.29
#   9   -5.34   -0.82    0.04    3.79   -0.20    0.00    0.00      -2.52   11.63   -0.60
#  10    5.47   -0.91    0.04   -4.37    0.15    0.00    0.00       0.39  -11.11    0.38
#  11   -0.14   -0.85    0.18    0.55   -0.08    0.00    0.00      -0.34    1.69   -0.25
#  12    1.68   -0.59    0.10   -0.89   -0.06    0.00    0.00       0.24   -3.50   -0.22
#  13    1.16   -0.37    0.02   -0.71   -0.05    0.00    0.00       0.05   -3.34   -0.25
#  14    1.96   -0.56    0.07   -1.10   -0.07    0.00    0.00       0.31   -4.16   -0.25
#  15    0.12   -0.93    0.18    0.23   -0.16    0.00    0.00      -0.57    0.66   -0.47
#  16   13.52   -2.27    2.58   -5.85    0.24    0.00    0.00       8.21  -15.02    0.61
#  17  -19.67   -0.31    0.32    6.12    0.22    0.00    0.00     -13.32   15.21    0.55
#  18  -11.43   -0.03    0.00    4.98    0.20    0.00    0.00      -6.28   14.02    0.56
#  19    0.06   -2.06    0.72   -0.52   -0.21    0.00    0.00      -2.02   -1.12   -0.45
#  20   -0.23   -2.45    0.73   -0.89   -0.23    0.00    0.00      -3.08   -1.64   -0.42
#  21    0.41   -1.88    0.41    0.05   -0.18    0.00    0.00      -1.19    0.08   -0.31
#  22   -0.97   -1.95    0.25   -0.69    0.40    0.00    0.00      -2.95   -1.08    0.62
#  23    0.06   -2.66    1.48    0.07    0.02    0.00    0.00      -1.03    0.10    0.03
#  24    1.01   -0.43    0.07    0.13   -0.13    0.00    0.00       0.64    0.28   -0.28
#  25    1.96   -1.06    1.20    0.62   -0.14    0.00    0.00       2.58    1.21   -0.28
#  26    1.31   -0.46    0.09    0.07   -0.14    0.00    0.00       0.87    0.14   -0.28
#  27    0.55   -0.61    0.46    0.34   -0.12    0.00    0.00       0.61    0.77   -0.27
#  28    0.42   -0.47    0.22    0.46   -0.11    0.00    0.00       0.52    1.19   -0.27
#  29    0.32   -0.36    0.09    0.76   -0.07    0.00    0.00       0.74    2.27   -0.22
#  30   -0.29   -0.72    0.39    0.53   -0.11    0.00    0.00      -0.20    1.33   -0.28
#  31   -0.30   -1.12    1.69    0.38   -0.10    0.00    0.00       0.56    1.11   -0.28
#  32   -2.58   -0.01    0.00    1.20    0.07    0.00    0.00      -1.32    9.72    0.53
#  33   -2.83   -0.42    0.15    2.33   -0.09    0.00    0.00      -0.85    7.30   -0.28
#  34   -0.69   -0.10    0.00    0.20   -0.03    0.00    0.00      -0.61    2.18   -0.28
#  35   -1.73   -0.39    0.22    0.61   -0.06    0.00    0.00      -1.35    2.64   -0.26
#  36   -0.68   -0.16    0.02    0.13   -0.04    0.00    0.00      -0.74    0.85   -0.28
#  37   -0.37   -0.07    0.00    0.17   -0.02    0.00    0.00      -0.29    2.41   -0.28
#  38   -0.72   -0.13    0.01    0.28   -0.04    0.00    0.00      -0.60    2.15   -0.28
#  39   -1.63   -0.27    0.13    0.38   -0.05    0.00    0.00      -1.45    2.03   -0.28
#  40   -2.41   -0.29    0.08    1.27   -0.07    0.00    0.00      -1.42    5.44   -0.28
#  41   -3.50   -0.46    0.16    1.79   -0.09    0.00    0.00      -2.10    5.29   -0.28
#  42   -0.28   -0.38    0.08    0.96   -0.10    0.00    0.00       0.30    2.77   -0.28
#  43    0.30   -0.95    0.66    0.87   -0.12    0.00    0.00       0.77    1.67   -0.22
#  44    0.08   -1.28    1.34    0.41   -0.18    0.00    0.00       0.37    0.60   -0.27
#  45    0.21   -0.88    0.88    0.47   -0.16    0.00    0.00       0.52    0.79   -0.27
#  46    0.30   -1.22    1.28    0.53   -0.19    0.00    0.00       0.70    0.79   -0.28
@<TRIPOS>MOLECULE
E43098012
   46    47     0     0     0
SMALL
USER_CHARGES


@<TRIPOS>ATOM
      1 C1         17.7101   16.1097   64.9240 C.3       1            -0.1552
      2 C2         18.8281   15.0938   64.6823 C.3       1             0.0549
      3 O1         19.6347   15.5253   63.5843 O.3       1            -0.3007
      4 C3         20.9456   15.1642   63.6017 C.ar      1             0.1044
      5 C4         21.9335   16.1359   63.6036 C.ar      1            -0.1543
      6 C5         23.2657   15.7671   63.6218 C.ar      1            -0.1278
      7 C6         24.3388   16.8252   63.6238 C.3       1             0.1656
      8 N1         24.7018   17.1552   62.2434 N.am      1            -0.6966
      9 C7         24.0493   18.1381   61.5918 C.2       1             0.5013
     10 O2         23.1618   18.7493   62.1481 O.2       1            -0.5272
     11 C8         24.4226   18.4776   60.1717 C.3       1             0.0080
     12 C9         25.8905   18.9061   60.1200 C.3       1            -0.1381
     13 C10        26.0854   20.1356   61.0113 C.3       1            -0.1365
     14 C11        25.1510   21.2482   60.5285 C.3       1            -0.1506
     15 C12        23.7077   20.7417   60.5664 C.3       1            -0.0058
     16 N2         23.5695   19.5714   59.6909 N.4       1            -0.4903
     17 H1         23.8438   19.8216   58.7526 H         1             0.4366
     18 H2         22.6072   19.2682   59.6873 H         1             0.4325
     19 C13        23.6158   14.4297   63.6385 C.ar      1            -0.0915
     20 C14        22.6352   13.4553   63.6362 C.ar      1            -0.1755
     21 C15        21.2979   13.8182   63.6234 C.ar      1             0.1203
     22 O3         20.3320   12.8609   63.6272 O.3       1            -0.3015
     23 C16        19.8833   12.3868   62.3559 C.3       1             0.0231
     24 H3         17.0948   15.7806   65.7615 H         1             0.0686
     25 H4         18.1460   17.0820   65.1536 H         1             0.0808
     26 H5         17.0927   16.1903   64.0294 H         1             0.0700
     27 H6         19.4456   15.0132   65.5769 H         1             0.0623
     28 H7         18.3923   14.1214   64.4528 H         1             0.0590
     29 H8         21.6627   17.1813   63.5906 H         1             0.1365
     30 H9         23.9670   17.7187   64.1253 H         1             0.0897
     31 H10        25.2165   16.4514   64.1509 H         1             0.0873
     32 H11        25.4116   16.6664   61.7985 H         1             0.4109
     33 H12        24.2788   17.6012   59.5397 H         1             0.1644
     34 H13        26.5207   18.0923   60.4789 H         1             0.0967
     35 H14        26.1624   19.1530   59.0938 H         1             0.1151
     36 H15        25.8467   19.8802   62.0436 H         1             0.1010
     37 H16        27.1197   20.4733   60.9470 H         1             0.0866
     38 H17        25.2501   22.1160   61.1805 H         1             0.0909
     39 H18        25.4129   21.5267   59.5076 H         1             0.1169
     40 H19        23.4483   20.4629   61.5878 H         1             0.1401
     41 H20        23.0376   21.5308   60.2252 H         1             0.1329
     42 H21        24.6576   14.1456   63.6529 H         1             0.1298
     43 H22        22.9112   12.4112   63.6489 H         1             0.1417
     44 H23        19.1144   11.6282   62.5020 H         1             0.0590
     45 H24        19.4702   13.2174   61.7836 H         1             0.0577
     46 H25        20.7231   11.9534   61.8128 H         1             0.1068
@<TRIPOS>BOND
     1    1    2 1 
     2    1   24 1 
     3    1   25 1 
     4    1   26 1 
     5    2    3 1 
     6    2   27 1 
     7    2   28 1 
     8    3    4 1 
     9    4   21 ar
    10    4    5 ar
    11    5    6 ar
    12    5   29 1 
    13    6    7 1 
    14    6   19 ar
    15    7    8 1 
    16    7   30 1 
    17    7   31 1 
    18    8    9 am
    19    8   32 1 
    20    9   10 2 
    21    9   11 1 
    22   11   16 1 
    23   11   12 1 
    24   11   33 1 
    25   12   13 1 
    26   12   34 1 
    27   12   35 1 
    28   13   14 1 
    29   13   36 1 
    30   13   37 1 
    31   14   15 1 
    32   14   38 1 
    33   14   39 1 
    34   15   16 1 
    35   15   40 1 
    36   15   41 1 
    37   16   17 1 
    38   16   18 1 
    39   19   20 ar
    40   19   42 1 
    41   20   21 ar
    42   20   43 1 
    43   21   22 1 
    44   22   23 1 
    45   23   44 1 
    46   23   45 1 
    47   23   46 1 
##########                 Name:            E44510906
##########          Protonation:                   98
##########               SMILES:   Cc1ncc(c(n1)C(=O)N2C[C@H]([C@@H](C2)[NH+](C)C)C)Cl
##########            Long Name:   -2-methyl-pyrimidine-4-carbonyl)-4-methyl-pyrrolidin-3-yl]-dimethyl-ammonium
##########          FlexRecCode: 1
##########               Number:                  373
##########   Ligand Source File: /raidb/db2/rgc/leads-emolecules-300/leads-lt300-emolecules-1-0000160.db2.gz
##########           GlobalRank: 2948
##########                 Rank:                    1
##########               Setnum:                   15
##########             Matchnum:                  633
##########                Cloud:                    1
##########        Electrostatic:           -21.935940
##########        Van der Waals:           -23.356249
##########  Ligand Polar Desolv:             6.928486
########## Ligand Apolar Desolv:            -2.427463
##########      Internal Energy:             0.000000
##########      Receptor Energy: 0.0
########## Receptor Desolvation:             0.000000
########## Receptor Hydrophobic:             0.000000
##########         Total Energy: -40.79
##########        Ligand Charge:             1.000000
##########            Arbitrary:    +999.9990
##########     heavy atom count:   19
##########           pose count:    1
##########        Ligand Energy:             0.000000
# num electro vdwattr vdwrepu polsolv apolsol rdesolv rhydroe totalscore fullpol fullapo
#   1    2.38   -1.18    0.26   -1.87   -0.09    0.00    0.00      -0.50   -3.64   -0.18
#   2    2.05   -0.80    0.06   -1.00   -0.07    0.00    0.00       0.24   -2.27   -0.17
#   3   -0.83   -1.03    0.41    0.50   -0.17    0.00    0.00      -1.12    1.29   -0.45
#   4    3.86   -1.01    0.06   -4.00    0.83    0.00    0.00      -0.26  -10.51    2.18
#   5   -0.85   -0.64    0.06    0.49   -0.15    0.00    0.00      -1.09    1.53   -0.48
#   6   -0.07   -0.67    0.05    0.56   -0.08    0.00    0.00      -0.21    1.50   -0.21
#   7    7.67   -1.06    0.35   -3.54    0.10    0.00    0.00       3.51  -11.29    0.33
#   8  -11.31   -0.04    0.00    3.25    0.14    0.00    0.00      -7.96   13.06    0.56
#   9    1.20   -1.45    0.62   -0.63   -0.17    0.00    0.00      -0.42   -1.77   -0.47
#  10    0.55   -0.43    0.03   -0.39   -0.11    0.00    0.00      -0.37   -1.66   -0.48
#  11   -0.74   -1.76    0.35    2.92   -0.28    0.00    0.00       0.48    6.86   -0.67
#  12   -0.24   -4.10    2.47   -2.39    0.17    0.00    0.00      -4.09   -4.88    0.35
#  13    0.16   -1.68    0.36    0.57   -0.33    0.00    0.00      -0.92    1.29   -0.74
#  14   -2.05   -1.62    0.32   -2.44    0.60    0.00    0.00      -5.20   -5.07    1.24
#  15    1.37   -1.73    0.31    1.79   -1.27    0.00    0.00       0.47    3.02   -2.15
#  16   -0.51   -1.42    0.42   -0.68   -0.13    0.00    0.00      -2.32   -1.14   -0.21
#  17   -1.84   -2.51    0.50   -2.54    1.23    0.00    0.00      -5.18   -4.11    1.98
#  18    0.17   -3.12    1.38    0.71   -0.53    0.00    0.00      -1.38    1.29   -0.96
#  19    0.04   -2.02    0.64   -0.54   -0.14    0.00    0.00      -2.02   -1.14   -0.30
#  20   -0.02   -3.63    1.56   -0.09   -0.36    0.00    0.00      -2.55   -0.22   -0.90
#  21   -0.99   -0.36    0.06    1.21   -0.12    0.00    0.00      -0.19    2.78   -0.28
#  22   -0.82   -0.58    0.51    0.32   -0.10    0.00    0.00      -0.68    0.90   -0.28
#  23   -1.56   -0.42    0.09    0.49   -0.11    0.00    0.00      -1.51    1.27   -0.28
#  24   -2.51   -0.39    0.07    1.44   -0.08    0.00    0.00      -1.47    3.85   -0.21
#  25   -0.55   -0.45    0.40    0.39   -0.08    0.00    0.00      -0.28    1.33   -0.27
#  26   -1.52   -0.55    0.50    0.54   -0.05    0.00    0.00      -1.08    1.79   -0.18
#  27   -0.94   -0.43    0.20    0.68   -0.07    0.00    0.00      -0.57    2.60   -0.28
#  28   -1.02   -0.12    0.00    0.30   -0.02    0.00    0.00      -0.86    2.68   -0.20
#  29   -2.51   -0.41    0.18    1.86   -0.07    0.00    0.00      -0.95    6.79   -0.26
#  30   -2.24   -0.48    0.31    1.39   -0.08    0.00    0.00      -1.11    4.75   -0.28
#  31   -3.99   -0.97    1.19    1.73   -0.11    0.00    0.00      -2.15    4.28   -0.28
#  32   -2.63   -0.38    0.16    1.08   -0.06    0.00    0.00      -1.83    3.89   -0.22
#  33   -1.11   -0.11    0.01    0.44   -0.03    0.00    0.00      -0.81    4.15   -0.28
#  34   -0.84   -0.15    0.01    0.77   -0.05    0.00    0.00      -0.27    4.76   -0.28
#  35   -0.98   -0.10    0.00    0.30   -0.02    0.00    0.00      -0.80    2.84   -0.22
#  36    0.26   -0.71    0.58    0.99   -0.15    0.00    0.00       0.97    1.80   -0.28
#  37    0.71   -0.35    0.06    0.36   -0.11    0.00    0.00       0.67    0.94   -0.28
#  38    0.64   -0.51    0.21    0.86   -0.12    0.00    0.00       1.07    1.96   -0.28
#  39   -0.32   -1.49    2.80    1.10   -0.15    0.00    0.00       1.94    2.09   -0.28
@<TRIPOS>MOLECULE
E44510906
   39    40     0     0     0
SMALL
USER_CHARGES


@<TRIPOS>ATOM
      1 C1         21.0191   19.2606   61.1195 C.3       1            -0.1527
      2 C2         22.3910   18.7369   60.6901 C.3       1            -0.1179
      3 C3         22.5790   17.2863   61.1580 C.3       1             0.0842
      4 N1         23.3102   17.4640   62.4312 N.am      1            -0.6179
      5 C4         24.3279   18.4778   62.1150 C.3       1             0.0892
      6 C5         23.4997   19.5262   61.3800 C.3       1             0.0047
      7 N2         24.3248   20.2256   60.3861 N.4       1            -0.3844
      8 H1         24.4698   19.6263   59.5875 H         1             0.4247
      9 C6         23.6409   21.4535   59.9588 C.3       1            -0.0507
     10 C7         25.6225   20.5700   60.9821 C.3       1            -0.0535
     11 C8         23.0943   16.8418   63.6072 C.2       1             0.5945
     12 O1         23.3478   17.4101   64.6505 O.2       1            -0.4846
     13 C9         22.5469   15.4630   63.6274 C.ar      1             0.1364
     14 N3         21.2320   15.2571   63.6594 N.ar      1            -0.4871
     15 C10        20.7426   14.0364   63.6770 C.ar      1             0.3256
     16 C11        19.2477   13.8486   63.7131 C.3       1            -0.0925
     17 N4         21.5213   12.9715   63.6636 N.ar      1            -0.4790
     18 C12        22.8370   13.0895   63.6321 C.ar      1             0.1813
     19 C13        23.4019   14.3592   63.6075 C.ar      1            -0.1062
     20 Cl1        25.1247   14.5673   63.5591 Cl        1             0.0115
     21 H2         20.2386   18.6875   60.6190 H         1             0.0689
     22 H3         20.9116   19.1550   62.1991 H         1             0.0830
     23 H4         20.9297   20.3121   60.8466 H         1             0.0736
     24 H5         22.4978   18.8010   59.6072 H         1             0.1005
     25 H6         21.6160   16.8043   61.3268 H         1             0.0907
     26 H7         23.1764   16.7213   60.4423 H         1             0.1388
     27 H8         24.7640   18.8911   63.0245 H         1             0.1191
     28 H9         25.1021   18.0663   61.4674 H         1             0.1069
     29 H10        23.0751   20.2389   62.0870 H         1             0.1587
     30 H11        24.2531   21.9726   59.2214 H         1             0.1255
     31 H12        22.6779   21.1980   59.5167 H         1             0.1267
     32 H13        23.4842   22.1010   60.8217 H         1             0.1240
     33 H14        26.2347   21.0890   60.2446 H         1             0.1279
     34 H15        25.4659   21.2177   61.8447 H         1             0.1266
     35 H16        26.1300   19.6589   61.2992 H         1             0.1244
     36 H17        19.0156   12.7836   63.7239 H         1             0.0958
     37 H18        18.8441   14.3175   64.6106 H         1             0.0981
     38 H19        18.8022   14.3086   62.8312 H         1             0.0921
     39 H20        23.4650   12.2109   63.6217 H         1             0.1932
@<TRIPOS>BOND
     1    1    2 1 
     2    1   21 1 
     3    1   22 1 
     4    1   23 1 
     5    2    6 1 
     6    2    3 1 
     7    2   24 1 
     8    3    4 1 
     9    3   25 1 
    10    3   26 1 
    11    4    5 1 
    12    4   11 am
    13    5    6 1 
    14    5   27 1 
    15    5   28 1 
    16    6    7 1 
    17    6   29 1 
    18    7    8 1 
    19    7    9 1 
    20    7   10 1 
    21    9   30 1 
    22    9   31 1 
    23    9   32 1 
    24   10   33 1 
    25   10   34 1 
    26   10   35 1 
    27   11   12 2 
    28   11   13 1 
    29   13   19 ar
    30   13   14 ar
    31   14   15 ar
    32   15   16 1 
    33   15   17 ar
    34   16   36 1 
    35   16   37 1 
    36   16   38 1 
    37   17   18 ar
    38   18   19 ar
    39   18   39 1 
    40   19   20 1 
##########                 Name:            E36932844
##########          Protonation:                   20
##########               SMILES:   Cc1c(cn[nH]1)C[NH2+][C@H](C)COc2ccc(cc2F)F
##########            Long Name:   -difluorophenoxy)-1-methyl-ethyl]-[(5-methyl-1H-pyrazol-4-yl)methyl]ammonium
##########          FlexRecCode: 1
##########               Number:                  577
##########   Ligand Source File: /raidb/db2/rgc/leads-emolecules-300/leads-lt300-emolecules-1j-0000212.db2.gz
##########           GlobalRank: 2968
##########                 Rank:                    1
##########               Setnum:                   90
##########             Matchnum:                 4827
##########                Cloud:                    1
##########        Electrostatic:           -22.707031
##########        Van der Waals:           -22.447975
##########  Ligand Polar Desolv:             6.606550
########## Ligand Apolar Desolv:            -2.234272
##########      Internal Energy:             0.000000
##########      Receptor Energy: 0.0
########## Receptor Desolvation:             0.000000
########## Receptor Hydrophobic:             0.000000
##########         Total Energy: -40.78
##########        Ligand Charge:             1.000000
##########            Arbitrary:    +999.9990
##########     heavy atom count:   20
##########           pose count:    1
##########        Ligand Energy:             0.000000
# num electro vdwattr vdwrepu polsolv apolsol rdesolv rhydroe totalscore fullpol fullapo
#   1    4.61   -1.38    0.37   -2.66   -0.08    0.00    0.00       0.85   -5.73   -0.17
#   2   -0.54   -0.66    0.03    1.13   -0.11    0.00    0.00      -0.15    2.79   -0.28
#   3   -0.21   -0.86    0.10   -0.22   -0.04    0.00    0.00      -1.22   -0.48   -0.08
#   4    0.85   -1.19    0.11   -3.13    0.34    0.00    0.00      -3.02   -7.16    0.78
#   5    0.03   -1.47    0.25    0.99   -0.13    0.00    0.00      -0.33    2.34   -0.31
#   6    0.16   -1.51    0.29   -0.99   -0.18    0.00    0.00      -2.22   -2.34   -0.42
#   7    0.06   -2.03    0.56   -0.81   -0.23    0.00    0.00      -2.45   -1.65   -0.47
#   8    0.31   -2.10    0.50    0.03   -0.20    0.00    0.00      -1.46    0.06   -0.34
#   9   -0.72   -2.16    0.86   -0.62   -0.31    0.00    0.00      -2.95   -0.96   -0.48
#  10   -0.69   -1.65    0.33   -0.95   -0.27    0.00    0.00      -3.21   -1.64   -0.46
#  11    0.59   -1.67    0.38    0.20   -0.15    0.00    0.00      -0.66    0.44   -0.34
#  12   -1.76   -1.49    0.92   -0.69   -0.23    0.00    0.00      -3.24   -1.43   -0.47
#  13    8.06   -1.35    0.47   -6.37    0.24    0.00    0.00       1.04  -16.99    0.63
#  14   -9.16   -0.06    0.01    4.62    0.18    0.00    0.00      -4.42   14.00    0.54
#  15   -4.37   -0.03    0.00    4.77    0.14    0.00    0.00       0.52   16.77    0.50
#  16   -1.36   -0.68    0.08    1.01   -0.12    0.00    0.00      -1.06    3.29   -0.39
#  17    2.87   -1.15    0.28   -1.83   -0.11    0.00    0.00       0.05   -6.54   -0.40
#  18   -0.05   -1.02    0.17    0.64   -0.19    0.00    0.00      -0.45    2.64   -0.78
#  19   -0.09   -0.76    0.22   -0.66   -0.05    0.00    0.00      -1.34   -2.86   -0.21
#  20   -1.19   -1.03    0.13   -2.13    0.21    0.00    0.00      -4.02   -7.38    0.71
#  21   -0.63   -1.15    0.18   -1.51    0.39    0.00    0.00      -2.73   -5.04    1.30
#  22   -0.70   -1.46    0.65    0.24   -0.31    0.00    0.00      -1.58    0.82   -1.05
#  23   -3.08   -0.86    1.14    0.43   -0.10    0.00    0.00      -2.47    1.08   -0.26
#  24   -2.09   -0.53    0.17    1.47   -0.09    0.00    0.00      -1.08    3.30   -0.21
#  25   -2.78   -0.47    0.19    0.73   -0.11    0.00    0.00      -2.44    1.91   -0.28
#  26   -2.07   -0.15    0.01    1.47   -0.04    0.00    0.00      -0.79    9.25   -0.28
#  27   -0.95   -0.50    0.27    1.25   -0.09    0.00    0.00      -0.03    3.64   -0.27
#  28   -0.59   -0.26    0.04    1.53   -0.08    0.00    0.00       0.63    5.18   -0.27
#  29   -0.44   -0.24    0.02    1.44   -0.05    0.00    0.00       0.73    6.09   -0.22
#  30   -0.60   -0.56    0.32    1.08   -0.11    0.00    0.00       0.14    2.64   -0.28
#  31    0.91   -0.29    0.03    0.34   -0.12    0.00    0.00       0.86    0.81   -0.28
#  32   -1.77   -0.13    0.01    0.80   -0.03    0.00    0.00      -1.12    6.99   -0.28
#  33   -3.38   -0.35    0.14    1.32   -0.06    0.00    0.00      -2.33    5.06   -0.22
#  34    0.23   -0.19    0.04    0.37   -0.05    0.00    0.00       0.41    2.28   -0.28
#  35   -0.10   -0.67    0.72    0.41   -0.08    0.00    0.00       0.29    1.48   -0.28
#  36   -0.09   -0.09    0.00    0.56   -0.02    0.00    0.00       0.36    5.55   -0.24
#  37    1.30   -0.01    0.00    1.36    0.09    0.00    0.00       2.73    6.35    0.40
#  38   -3.26   -0.32    0.09    0.97   -0.07    0.00    0.00      -2.60    4.02   -0.28
@<TRIPOS>MOLECULE
E36932844
   38    39     0     0     0
SMALL
USER_CHARGES


@<TRIPOS>ATOM
      1 C1         22.3261   19.1727   59.8085 C.3       1            -0.1847
      2 C2         22.9298   18.9036   61.1884 C.3       1             0.0356
      3 C3         21.8673   18.2830   62.0977 C.3       1             0.0273
      4 O1         22.5048   17.6144   63.1879 O.3       1            -0.3146
      5 C4         22.2733   16.2802   63.3145 C.ar      1             0.0718
      6 C5         23.3301   15.3846   63.2610 C.ar      1            -0.1460
      7 C6         23.0941   14.0291   63.3897 C.ar      1            -0.1216
      8 C7         21.8028   13.5640   63.5718 C.ar      1             0.1146
      9 F1         21.5745   12.2385   63.6978 F         1            -0.1212
     10 C8         20.7453   14.4559   63.6257 C.ar      1            -0.1526
     11 C9         20.9788   15.8140   63.5030 C.ar      1             0.1133
     12 F2         19.9480   16.6853   63.5615 F         1            -0.1202
     13 N1         23.3973   20.1674   61.7733 N.4       1            -0.5108
     14 H1         22.6196   20.8037   61.8648 H         1             0.4335
     15 H2         23.7954   19.9899   62.6834 H         1             0.4209
     16 C10        24.4175   20.7633   60.9003 C.3       1             0.0841
     17 C11        24.8970   22.0598   61.5003 C.2       1            -0.3245
     18 C12        25.9349   22.2050   62.3564 C.2       1             0.1375
     19 C13        26.8166   21.1004   62.8794 C.3       1            -0.1122
     20 N2         26.0389   23.5164   62.6580 N.pl3     1            -0.4541
     21 N3         25.0317   24.1995   61.9642 N.2       1            -0.2671
     22 C14        24.3518   23.3263   61.2661 C.2       1             0.0816
     23 H3         23.0831   19.6149   59.1608 H         1             0.0920
     24 H4         21.9793   18.2350   59.3746 H         1             0.0872
     25 H5         21.4860   19.8601   59.9072 H         1             0.1069
     26 H6         23.7700   18.2162   61.0897 H         1             0.1593
     27 H7         21.2160   19.0674   62.4834 H         1             0.1136
     28 H8         21.2752   17.5665   61.5283 H         1             0.0897
     29 H9         24.3379   15.7461   63.1185 H         1             0.1494
     30 H10        23.9177   13.3317   63.3475 H         1             0.1534
     31 H11        19.7385   14.0919   63.7678 H         1             0.1631
     32 H12        25.2577   20.0758   60.8016 H         1             0.1347
     33 H13        23.9875   20.9549   59.9173 H         1             0.1420
     34 H14        27.5660   21.5204   63.5501 H         1             0.1020
     35 H15        26.2086   20.3763   63.4219 H         1             0.0909
     36 H16        27.3127   20.6055   62.0446 H         1             0.0787
     37 H17        26.6951   23.9154   63.2505 H         1             0.4511
     38 H18        23.5126   23.5453   60.6225 H         1             0.1954
@<TRIPOS>BOND
     1    1    2 1 
     2    1   23 1 
     3    1   24 1 
     4    1   25 1 
     5    2    3 1 
     6    2   13 1 
     7    2   26 1 
     8    3    4 1 
     9    3   27 1 
    10    3   28 1 
    11    4    5 1 
    12    5   11 ar
    13    5    6 ar
    14    6    7 ar
    15    6   29 1 
    16    7    8 ar
    17    7   30 1 
    18    8    9 1 
    19    8   10 ar
    20   10   11 ar
    21   10   31 1 
    22   11   12 1 
    23   13   14 1 
    24   13   15 1 
    25   13   16 1 
    26   16   17 1 
    27   16   32 1 
    28   16   33 1 
    29   17   22 1 
    30   17   18 2 
    31   18   19 1 
    32   18   20 1 
    33   19   34 1 
    34   19   35 1 
    35   19   36 1 
    36   20   21 1 
    37   20   37 1 
    38   21   22 2 
    39   22   38 1 
##########                 Name:            E25923534
##########          Protonation:                   31
##########               SMILES:   [H]/N=C(\c1ccccc1)/NOC(=O)c2ccc(cc2Cl)C
##########            Long Name:   (benzenecarboximidoylamino)
##########          FlexRecCode: 1
##########               Number:                  107
##########   Ligand Source File: /raidb/db2/rgc/leads-emolecules-300/leads-emolecules-3-ax-0000016.db2.gz
##########           GlobalRank: 2998
##########                 Rank:                    1
##########               Setnum:                  126
##########             Matchnum:                  747
##########                Cloud:                    1
##########        Electrostatic:            -5.638529
##########        Van der Waals:           -34.800751
##########  Ligand Polar Desolv:             4.733661
########## Ligand Apolar Desolv:            -5.053749
##########      Internal Energy:             0.000000
##########      Receptor Energy: 0.0
########## Receptor Desolvation:             0.000000
########## Receptor Hydrophobic:             0.000000
##########         Total Energy: -40.76
##########        Ligand Charge:             0.000000
##########            Arbitrary:    +999.9990
##########     heavy atom count:   20
##########           pose count:    1
##########        Ligand Energy:             0.000000
# num electro vdwattr vdwrepu polsolv apolsol rdesolv rhydroe totalscore fullpol fullapo
#   1   -1.09   -1.61    0.46   -0.42   -0.13    0.00    0.00      -2.80   -0.64   -0.20
#   2   -0.32   -2.34    0.90   -0.03   -0.27    0.00    0.00      -2.06   -0.05   -0.41
#   3   -1.39   -3.02    1.44   -0.15   -0.27    0.00    0.00      -3.38   -0.25   -0.45
#   4   -0.55   -3.35    1.55    0.02   -0.27    0.00    0.00      -2.59    0.04   -0.45
#   5   -1.75   -2.60    1.05    0.38   -0.25    0.00    0.00      -3.18    0.62   -0.41
#   6    6.37   -2.04    0.40   -1.72   -0.10    0.00    0.00       2.92   -2.85   -0.16
#   7   -9.72   -2.63    1.53    2.12   -0.18    0.00    0.00      -8.88    3.75   -0.32
#   8   -0.64   -1.96    0.74    0.38   -0.35    0.00    0.00      -1.82    0.64   -0.59
#   9   -3.63   -2.02    0.53    1.64    0.37    0.00    0.00      -3.11    2.83    0.64
#  10    1.88   -1.76    0.33   -1.26   -1.30    0.00    0.00      -2.12   -2.13   -2.20
#  11   -2.29   -2.70    1.02    2.78    0.86    0.00    0.00      -0.33    4.37    1.35
#  12   -0.18   -1.74    0.44    0.13   -0.20    0.00    0.00      -1.55    0.26   -0.41
#  13    0.17   -2.11    0.69    0.03   -0.21    0.00    0.00      -1.43    0.07   -0.44
#  14    0.37   -1.51    0.26   -0.07   -0.20    0.00    0.00      -1.15   -0.16   -0.47
#  15    0.30   -1.78    0.58   -0.08   -0.17    0.00    0.00      -1.16   -0.22   -0.47
#  16    0.14   -2.14    0.74   -0.08   -0.20    0.00    0.00      -1.54   -0.20   -0.47
#  17   -0.20   -1.97    0.62    0.01   -0.19    0.00    0.00      -1.73    0.03   -0.44
#  18    0.25   -2.80    0.89   -0.01   -0.19    0.00    0.00      -1.85   -0.01   -0.29
#  19   -0.05   -7.77    3.55    0.20   -0.60    0.00    0.00      -4.68    0.29   -0.89
#  20   -1.06   -2.87    0.94   -0.01   -0.28    0.00    0.00      -3.28   -0.01   -0.44
#  21    0.67   -0.46    0.13    0.28   -0.13    0.00    0.00       0.48    0.59   -0.28
#  22    0.58   -0.55    0.18    0.32   -0.14    0.00    0.00       0.39    0.63   -0.28
#  23    0.73   -0.85    0.81    0.30   -0.17    0.00    0.00       0.83    0.50   -0.28
#  24    1.08   -0.80    0.42    0.52   -0.15    0.00    0.00       1.07    0.99   -0.28
#  25    1.34   -0.98    0.65   -0.04   -0.16    0.00    0.00       0.81   -0.07   -0.27
#  26    3.24   -0.06    0.00   -0.70    0.16    0.00    0.00       2.65   -1.62    0.37
#  27    0.83   -0.06    0.00   -0.70    0.26    0.00    0.00       0.33   -1.21    0.45
#  28   -0.48   -0.89    1.18    0.02   -0.10    0.00    0.00      -0.26    0.05   -0.22
#  29   -0.61   -0.27    0.05    0.16   -0.08    0.00    0.00      -0.75    0.59   -0.28
#  30   -0.70   -0.41    0.21    0.19   -0.06    0.00    0.00      -0.77    0.83   -0.28
#  31   -0.33   -0.52    0.14    0.28   -0.11    0.00    0.00      -0.54    0.72   -0.28
#  32    0.73   -0.56    0.36    0.04   -0.08    0.00    0.00       0.50    0.12   -0.22
#  33    0.72   -0.76    0.26    0.20   -0.16    0.00    0.00       0.25    0.34   -0.28
@<TRIPOS>MOLECULE
E25923534
   33    34     0     0     0
SMALL
USER_CHARGES


@<TRIPOS>ATOM
      1 C1         12.3390   15.4185   65.9501 C.3       1            -0.1239
      2 C2         13.7867   15.4050   65.5317 C.ar      1            -0.0307
      3 C3         14.1395   15.8167   64.2581 C.ar      1            -0.1302
      4 C4         15.4620   15.8072   63.8678 C.ar      1            -0.0434
      5 C5         16.4475   15.3807   64.7607 C.ar      1            -0.1303
      6 C6         17.8660   15.3683   64.3496 C.2       1             0.4843
      7 O1         18.4090   16.4010   64.0087 O.2       1            -0.4798
      8 O2         18.5562   14.2157   64.3524 O.3       1            -0.0866
      9 N1         19.9405   14.3739   64.6044 N.pl3     1            -0.5643
     10 C7         20.8588   13.9639   63.6714 C.2       1             0.4692
     11 N2         20.5838   12.9623   62.8820 N.2       1            -0.7384
     12 C8         22.1624   14.6582   63.5604 C.ar      1            -0.0987
     13 C9         23.2914   13.9628   63.1290 C.ar      1            -0.0944
     14 C10        24.5030   14.6152   63.0271 C.ar      1            -0.1146
     15 C11        24.5991   15.9565   63.3519 C.ar      1            -0.0989
     16 C12        23.4826   16.6515   63.7809 C.ar      1            -0.1133
     17 C13        22.2643   16.0113   63.8813 C.ar      1            -0.0886
     18 C14        16.0851   14.9663   66.0448 C.ar      1             0.0279
     19 Cl1        17.3015   14.4348   67.1636 Cl        1            -0.0260
     20 C15        14.7567   14.9866   66.4239 C.ar      1            -0.1269
     21 H1         11.7251   15.7749   65.1229 H         1             0.0827
     22 H2         12.0302   14.4095   66.2232 H         1             0.0769
     23 H3         12.2144   16.0809   66.8066 H         1             0.0753
     24 H4         13.3768   16.1460   63.5680 H         1             0.1417
     25 H5         15.7350   16.1285   62.8734 H         1             0.1503
     26 H6         20.2396   14.7724   65.4367 H         1             0.4331
     27 H7         21.2333   12.6724   62.2223 H         1             0.3503
     28 H8         23.2178   12.9156   62.8755 H         1             0.1258
     29 H9         25.3784   14.0776   62.6934 H         1             0.1323
     30 H10        25.5495   16.4629   63.2706 H         1             0.1306
     31 H11        23.5638   17.6984   64.0335 H         1             0.1334
     32 H12        21.3924   16.5562   64.2121 H         1             0.1296
     33 H13        14.4750   14.6712   67.4176 H         1             0.1456
@<TRIPOS>BOND
     1    1    2 1 
     2    1   21 1 
     3    1   22 1 
     4    1   23 1 
     5    2   20 ar
     6    2    3 ar
     7    3    4 ar
     8    3   24 1 
     9    4    5 ar
    10    4   25 1 
    11    5    6 1 
    12    5   18 ar
    13    6    7 2 
    14    6    8 1 
    15    8    9 1 
    16    9   10 1 
    17    9   26 1 
    18   10   11 2 
    19   10   12 1 
    20   11   27 1 
    21   12   17 ar
    22   12   13 ar
    23   13   14 ar
    24   13   28 1 
    25   14   15 ar
    26   14   29 1 
    27   15   16 ar
    28   15   30 1 
    29   16   17 ar
    30   16   31 1 
    31   17   32 1 
    32   18   19 1 
    33   18   20 ar
    34   20   33 1 
##########                 Name:             E1110880
##########          Protonation:                  100
##########               SMILES:   c1ccc(cc1)O/C(=N/c2cccc(c2)Cl)/NC#N
##########            Long Name:   3-(3-chlorophenyl)-1-cyano-2-phenyl-isourea
##########          FlexRecCode: 1
##########               Number:                   64
##########   Ligand Source File: /raidb/db2/rgc/leads-emolecules-300/leads-emolecules-lt300-1f-0000145.db2.gz
##########           GlobalRank: 2998
##########                 Rank:                    1
##########               Setnum:                   17
##########             Matchnum:                 4057
##########                Cloud:                    1
##########        Electrostatic:            -7.917673
##########        Van der Waals:           -30.622206
##########  Ligand Polar Desolv:             3.114092
########## Ligand Apolar Desolv:            -5.335210
##########      Internal Energy:             0.000000
##########      Receptor Energy: 0.0
########## Receptor Desolvation:             0.000000
########## Receptor Hydrophobic:             0.000000
##########         Total Energy: -40.76
##########        Ligand Charge:             0.000000
##########            Arbitrary:    +999.9990
##########     heavy atom count:   19
##########           pose count:    1
##########        Ligand Energy:             0.000000
# num electro vdwattr vdwrepu polsolv apolsol rdesolv rhydroe totalscore fullpol fullapo
#   1    0.02   -8.92    5.27    0.08   -0.68    0.00    0.00      -4.23    0.11   -0.99
#   2   -0.14   -2.57    0.64    0.01   -0.20    0.00    0.00      -2.25    0.02   -0.30
#   3   -1.42   -2.11    0.34    0.09   -0.28    0.00    0.00      -3.39    0.15   -0.45
#   4    2.26   -2.50    0.75   -0.01   -0.34    0.00    0.00       0.16   -0.02   -0.58
#   5   -2.62   -3.93    2.21   -0.23   -0.23    0.00    0.00      -4.79   -0.38   -0.37
#   6   -1.08   -3.22    1.42   -0.15   -0.28    0.00    0.00      -3.31   -0.25   -0.47
#   7   -1.53   -2.61    1.16   -0.15   -0.28    0.00    0.00      -3.42   -0.25   -0.46
#   8  -10.22   -3.12    2.98    0.42    1.54    0.00    0.00      -8.40    0.77    2.83
#   9    4.79   -1.91    0.44   -0.23   -1.04    0.00    0.00       2.05   -0.44   -2.01
#  10   -3.61   -2.37    0.80   -0.42    0.68    0.00    0.00      -4.92   -0.72    1.17
#  11    1.41   -2.26    0.46   -0.31   -2.73    0.00    0.00      -3.42   -0.49   -4.35
#  12   -1.51   -3.27    0.90    1.17    0.48    0.00    0.00      -2.23    1.79    0.73
#  13   -0.62   -2.15    2.42    0.28    0.17    0.00    0.00       0.10    0.61    0.38
#  14    0.10   -1.58    0.38   -0.06   -0.10    0.00    0.00      -1.26   -0.13   -0.24
#  15   -0.13   -2.02    0.65    0.05   -0.20    0.00    0.00      -1.66    0.12   -0.45
#  16    0.17   -3.10    1.33   -0.04   -0.23    0.00    0.00      -1.87   -0.08   -0.47
#  17    0.72   -3.03    1.10   -0.08   -0.22    0.00    0.00      -1.51   -0.17   -0.47
#  18    1.13   -2.30    0.90   -0.05   -0.21    0.00    0.00      -0.53   -0.11   -0.47
#  19    0.54   -1.96    1.16    0.05   -0.21    0.00    0.00      -0.42    0.11   -0.46
#  20    1.39   -0.42    0.08   -0.12   -0.13    0.00    0.00       0.80   -0.27   -0.28
#  21    0.85   -1.53    2.66    0.36   -0.18    0.00    0.00       2.16    0.56   -0.28
#  22    1.05   -0.83    0.70    0.64   -0.15    0.00    0.00       1.41    1.20   -0.28
#  23    1.37   -0.43    0.10    0.25   -0.13    0.00    0.00       1.16    0.54   -0.28
#  24    3.27   -0.07    0.01    0.80    0.21    0.00    0.00       4.22    1.67    0.44
#  25    0.39   -0.46    0.17   -0.02   -0.10    0.00    0.00      -0.02   -0.06   -0.28
#  26   -0.07   -1.18    0.73    0.26   -0.15    0.00    0.00      -0.40    0.49   -0.28
#  27   -1.11   -1.31    1.36    0.32   -0.13    0.00    0.00      -0.87    0.69   -0.28
#  28   -2.25   -0.54    0.24    0.21   -0.10    0.00    0.00      -2.45    0.57   -0.28
#  29   -1.08   -0.37    0.11    0.00   -0.11    0.00    0.00      -1.46   -0.01   -0.28
@<TRIPOS>MOLECULE
E1110880
   29    30     0     0     0
SMALL
USER_CHARGES


@<TRIPOS>ATOM
      1 Cl1        16.5826   14.3057   67.4461 Cl        1            -0.0610
      2 C1         16.4728   15.1106   65.9119 C.ar      1            -0.0136
      3 C2         17.6223   15.4167   65.2105 C.ar      1            -0.1108
      4 C3         17.5315   16.0634   63.9772 C.ar      1             0.1277
      5 C4         16.2778   16.3965   63.4608 C.ar      1            -0.1702
      6 C5         15.1372   16.0852   64.1714 C.ar      1            -0.0814
      7 C6         15.2328   15.4392   65.3912 C.ar      1            -0.1248
      8 N1         18.6682   16.3705   63.2761 N.2       1            -0.5571
      9 C7         19.4828   15.4170   62.8991 C.2       1             0.5881
     10 N2         19.1384   14.0997   63.0969 N.pl3     1            -0.5962
     11 C8         20.1032   13.1701   63.2991 C.1       1             0.4024
     12 N3         20.9121   12.3908   63.4686 N.1       1            -0.3769
     13 O1         20.6607   15.7266   62.3162 O.3       1            -0.2451
     14 C9         21.2579   16.8962   62.6661 C.ar      1             0.0903
     15 C10        22.1488   16.9308   63.7292 C.ar      1            -0.0995
     16 C11        22.7547   18.1207   64.0827 C.ar      1            -0.1067
     17 C12        22.4738   19.2770   63.3783 C.ar      1            -0.1052
     18 C13        21.5864   19.2452   62.3184 C.ar      1            -0.1073
     19 C14        20.9821   18.0566   61.9573 C.ar      1            -0.1065
     20 H1         18.5891   15.1567   65.6155 H         1             0.1397
     21 H2         16.2012   16.8973   62.5070 H         1             0.1302
     22 H3         14.1671   16.3428   63.7728 H         1             0.1374
     23 H4         14.3364   15.1941   65.9415 H         1             0.1369
     24 H5         18.2048   13.8365   63.0917 H         1             0.4512
     25 H6         22.3679   16.0281   64.2802 H         1             0.1293
     26 H7         23.4483   18.1482   64.9102 H         1             0.1325
     27 H8         22.9481   20.2065   63.6565 H         1             0.1307
     28 H9         21.3686   20.1496   61.7697 H         1             0.1340
     29 H10        20.2925   18.0314   61.1267 H         1             0.1321
@<TRIPOS>BOND
     1    1    2 1 
     2    2    7 ar
     3    2    3 ar
     4    3    4 ar
     5    3   20 1 
     6    4    5 ar
     7    4    8 1 
     8    5    6 ar
     9    5   21 1 
    10    6    7 ar
    11    6   22 1 
    12    7   23 1 
    13    8    9 2 
    14    9   10 1 
    15    9   13 1 
    16   10   11 1 
    17   10   24 1 
    18   11   12 3 
    19   13   14 1 
    20   14   19 ar
    21   14   15 ar
    22   15   16 ar
    23   15   25 1 
    24   16   17 ar
    25   16   26 1 
    26   17   18 ar
    27   17   27 1 
    28   18   19 ar
    29   18   28 1 
    30   19   29 1 
##########                 Name:            E30493327
##########          Protonation:                   54
##########               SMILES:   Cn1cncc1c2nnc(o2)[C@H]3CC[NH+](C3)Cc4[nH]ccn4
##########            Long Name:   2-ylmethyl)pyrrolidin-1-ium-3-yl]-5-(3-methylimidazol-4-yl)-1,3,4-oxadiazole
##########          FlexRecCode: 1
##########               Number:                  754
##########   Ligand Source File: /raidb/db2/rgc/leads-emolecules-300/leads-emolecules-3-bf-0000007.db2.gz
##########           GlobalRank: 3020
##########                 Rank:                    1
##########               Setnum:                  104
##########             Matchnum:                  480
##########                Cloud:                    1
##########        Electrostatic:           -19.741346
##########        Van der Waals:           -26.733015
##########  Ligand Polar Desolv:             6.269603
########## Ligand Apolar Desolv:            -0.531203
##########      Internal Energy:             0.000000
##########      Receptor Energy: 0.0
########## Receptor Desolvation:             0.000000
########## Receptor Hydrophobic:             0.000000
##########         Total Energy: -40.74
##########        Ligand Charge:             1.000000
##########            Arbitrary:    +999.9990
##########     heavy atom count:   22
##########           pose count:    1
##########        Ligand Energy:             0.000000
# num electro vdwattr vdwrepu polsolv apolsol rdesolv rhydroe totalscore fullpol fullapo
#   1    0.59   -1.10    0.16    0.35   -0.30    0.00    0.00      -0.29    0.68   -0.57
#   2   -2.02   -1.60    0.26   -2.10    0.79    0.00    0.00      -4.67   -3.63    1.37
#   3    0.87   -2.17    0.36    1.09   -2.01    0.00    0.00      -1.86    1.74   -3.20
#   4   -2.42   -3.43    1.22   -1.75    1.42    0.00    0.00      -4.96   -2.76    2.24
#   5    0.09   -2.45    0.72    0.05   -0.56    0.00    0.00      -2.15    0.10   -1.03
#   6   -0.02   -1.73    0.44   -0.05   -0.37    0.00    0.00      -1.74   -0.11   -0.75
#   7    0.06   -1.58    0.28    0.89   -0.30    0.00    0.00      -0.64    2.10   -0.71
#   8   -0.53   -3.44    2.14   -1.42    1.08    0.00    0.00      -2.17   -2.95    2.25
#   9    0.68   -2.97    0.96   -1.95    1.16    0.00    0.00      -2.11   -4.23    2.53
#  10   -0.84   -1.37    0.23    1.31   -0.22    0.00    0.00      -0.89    3.56   -0.61
#  11    0.86   -0.90    0.09   -1.00    0.12    0.00    0.00      -0.84   -2.77    0.32
#  12    0.00   -0.66    0.10   -0.10   -0.06    0.00    0.00      -0.73   -0.36   -0.22
#  13    1.12   -0.43    0.02   -0.84   -0.07    0.00    0.00      -0.21   -3.31   -0.27
#  14    0.00   -0.55    0.07    0.18   -0.10    0.00    0.00      -0.39    0.72   -0.41
#  15    6.76   -1.05    0.49   -3.12    0.12    0.00    0.00       3.20  -11.52    0.45
#  16  -13.11   -0.09    0.02    3.93    0.14    0.00    0.00      -9.11   15.34    0.56
#  17   -0.93   -0.43    0.03    0.75   -0.08    0.00    0.00      -0.66    3.32   -0.36
#  18   -1.33   -0.91    0.10    1.12   -0.54    0.00    0.00      -1.56    4.05   -1.95
#  19    3.56   -1.18    0.20   -2.86    0.65    0.00    0.00       0.37   -9.22    2.09
#  20    0.15   -1.77    0.77   -0.51   -0.34    0.00    0.00      -1.69   -1.53   -1.02
#  21    0.00   -2.00    1.02   -0.22   -0.33    0.00    0.00      -1.53   -0.66   -1.02
#  22    8.40   -1.94    1.23   -3.86    0.38    0.00    0.00       4.21  -12.10    1.18
#  23    0.05   -0.58    0.04    0.25   -0.15    0.00    0.00      -0.40    0.77   -0.47
#  24    0.89   -0.31    0.03    0.38   -0.11    0.00    0.00       0.89    1.01   -0.28
#  25    1.26   -0.55    0.31    0.72   -0.10    0.00    0.00       1.64    1.95   -0.28
#  26    0.91   -0.34    0.07    0.32   -0.08    0.00    0.00       0.87    0.84   -0.22
#  27    0.48   -0.54    0.13    1.94   -0.16    0.00    0.00       1.86    3.40   -0.28
#  28   -0.43   -0.56    0.23    0.81   -0.12    0.00    0.00      -0.06    1.88   -0.28
#  29   -1.12   -0.39    0.23    1.15   -0.06    0.00    0.00      -0.19    5.40   -0.28
#  30   -0.70   -0.10    0.01    0.25   -0.03    0.00    0.00      -0.57    2.56   -0.28
#  31   -1.00   -0.17    0.01    0.32   -0.05    0.00    0.00      -0.88    1.64   -0.27
#  32   -0.86   -0.08    0.00    0.34   -0.02    0.00    0.00      -0.62    4.47   -0.26
#  33   -1.71   -0.33    0.10    0.89   -0.07    0.00    0.00      -1.13    3.42   -0.28
#  34   -0.84   -0.12    0.01    1.07   -0.04    0.00    0.00       0.08    8.03   -0.28
#  35   -0.97   -0.09    0.00    0.56   -0.02    0.00    0.00      -0.52    6.29   -0.27
#  36   -1.10   -0.39    0.17    0.43   -0.07    0.00    0.00      -0.95    1.74   -0.28
#  37   -3.70   -0.41    0.17    0.98   -0.08    0.00    0.00      -3.04    3.53   -0.28
#  38   -7.89   -0.11    0.04    3.41    0.17    0.00    0.00      -4.38   11.88    0.59
#  39   -2.60   -0.19    0.01    0.89   -0.06    0.00    0.00      -1.94    4.15   -0.26
#  40   -2.35   -0.24    0.04    1.63   -0.05    0.00    0.00      -0.98    7.85   -0.26
@<TRIPOS>MOLECULE
E30493327
   40    43     0     0     0
SMALL
USER_CHARGES


@<TRIPOS>ATOM
      1 C1         19.6473   15.5149   63.6580 C.3       1             0.0614
      2 N1         20.6840   14.4797   63.6479 N.pl3     1            -0.4339
      3 C2         20.4858   13.1455   63.6915 C.2       1             0.2399
      4 N2         21.6438   12.5409   63.6646 N.2       1            -0.4884
      5 C3         22.6227   13.4486   63.6035 C.2       1             0.0702
      6 C4         22.0462   14.6847   63.5859 C.2       1            -0.0112
      7 C5         22.7405   15.9804   63.5178 C.2       1             0.2903
      8 N3         22.6846   16.9438   64.4110 N.2       1            -0.2872
      9 N4         23.4167   17.9269   64.0203 N.2       1            -0.2571
     10 C6         23.9644   17.6352   62.8742 C.2       1             0.1370
     11 O1         23.5580   16.3998   62.5301 O.3       1            -0.2025
     12 C7         24.8914   18.5197   62.0806 C.3       1             0.0004
     13 C8         25.7145   17.7042   61.0625 C.3       1            -0.1345
     14 C9         26.1409   18.7935   60.0780 C.3       1            -0.0001
     15 N5         25.1459   19.8506   60.1659 N.4       1            -0.3894
     16 H1         24.7380   20.0129   59.2574 H         1             0.4289
     17 C10        25.7727   21.0847   60.6578 C.3       1             0.0958
     18 C11        24.9104   22.2658   60.2936 C.2       1             0.1148
     19 N6         24.9949   22.9578   59.1905 N.2       1            -0.4451
     20 C12        24.0727   23.9317   59.2075 C.2       1            -0.0160
     21 C13        23.3909   23.8396   60.3652 C.2       1            -0.0001
     22 N7         23.9184   22.7797   61.0523 N.pl3     1            -0.5527
     23 C14        24.1124   19.4168   61.1026 C.3       1            -0.0031
     24 H2         18.6653   15.0450   63.7127 H         1             0.0877
     25 H3         19.7889   16.1624   64.5234 H         1             0.0997
     26 H4         19.7165   16.1074   62.7457 H         1             0.1006
     27 H5         19.5244   12.6562   63.7406 H         1             0.2259
     28 H6         23.6819   13.2403   63.5697 H         1             0.1858
     29 H7         25.5335   19.1081   62.7361 H         1             0.1433
     30 H8         26.5814   17.2454   61.5380 H         1             0.1299
     31 H9         25.0959   16.9531   60.5712 H         1             0.1127
     32 H10        27.1224   19.1806   60.3514 H         1             0.1480
     33 H11        26.1698   18.3911   59.0655 H         1             0.1405
     34 H12        25.8779   21.0320   61.7415 H         1             0.1452
     35 H13        26.7565   21.1990   60.2024 H         1             0.1609
     36 H14        23.9061   24.6617   58.4292 H         1             0.1872
     37 H15        22.5809   24.4769   60.6878 H         1             0.1947
     38 H16        23.6340   22.4587   61.9223 H         1             0.4278
     39 H17        23.3391   18.8468   60.5877 H         1             0.1436
     40 H18        23.6798   20.2713   61.6231 H         1             0.1495
@<TRIPOS>BOND
     1    1    2 1 
     2    1   24 1 
     3    1   25 1 
     4    1   26 1 
     5    2    6 1 
     6    2    3 1 
     7    3    4 2 
     8    3   27 1 
     9    4    5 1 
    10    5    6 2 
    11    5   28 1 
    12    6    7 1 
    13    7   11 1 
    14    7    8 2 
    15    8    9 1 
    16    9   10 2 
    17   10   11 1 
    18   10   12 1 
    19   12   23 1 
    20   12   13 1 
    21   12   29 1 
    22   13   14 1 
    23   13   30 1 
    24   13   31 1 
    25   14   15 1 
    26   14   32 1 
    27   14   33 1 
    28   15   16 1 
    29   15   17 1 
    30   15   23 1 
    31   17   18 1 
    32   17   34 1 
    33   17   35 1 
    34   18   22 1 
    35   18   19 2 
    36   19   20 1 
    37   20   21 2 
    38   20   36 1 
    39   21   22 1 
    40   21   37 1 
    41   22   38 1 
    42   23   39 1 
    43   23   40 1 
##########                 Name:            E44315916
##########          Protonation:                   58
##########               SMILES:   COCC[NH+]1C[C@@H]2CN(C[C@@H]2C1)Cc3cccc(c3)F
##########            Long Name:   yl]-2-(2-methoxyethyl)-2,3,3a,4,6,6a-hexahydro-1H-pyrrolo[3,4-c]pyrrol-2-ium
##########          FlexRecCode: 1
##########               Number:                  828
##########   Ligand Source File: /raidb/db2/rgc/leads-emolecules-300/leads-lt300-emolecules-1i-0000206.db2.gz
##########           GlobalRank: 3020
##########                 Rank:                    1
##########               Setnum:                   17
##########             Matchnum:                 4249
##########                Cloud:                    1
##########        Electrostatic:           -21.896711
##########        Van der Waals:           -23.907434
##########  Ligand Polar Desolv:             7.666055
########## Ligand Apolar Desolv:            -2.600937
##########      Internal Energy:             0.000000
##########      Receptor Energy: 0.0
########## Receptor Desolvation:             0.000000
########## Receptor Hydrophobic:             0.000000
##########         Total Energy: -40.74
##########        Ligand Charge:             1.000000
##########            Arbitrary:    +999.9990
##########     heavy atom count:   20
##########           pose count:    1
##########        Ligand Energy:             0.000000
# num electro vdwattr vdwrepu polsolv apolsol rdesolv rhydroe totalscore fullpol fullapo
#   1   -0.14   -1.38    0.47    0.21    0.01    0.00    0.00      -0.84    0.52    0.02
#   2    2.67   -3.06    2.46   -3.31    0.38    0.00    0.00      -0.86   -8.91    1.01
#   3   -0.33   -0.74    0.11    0.06   -0.04    0.00    0.00      -0.94    0.20   -0.12
#   4   -0.04   -1.16    0.42    0.27   -0.13    0.00    0.00      -0.65    0.81   -0.39
#   5    9.81   -1.60    0.64   -4.17    0.15    0.00    0.00       4.83  -11.36    0.42
#   6  -14.47   -0.09    0.01    5.87    0.21    0.00    0.00      -8.47   15.30    0.56
#   7   -0.19   -1.10    0.19    0.37   -0.14    0.00    0.00      -0.87    0.86   -0.32
#   8    2.11   -0.93    0.11   -1.01   -0.12    0.00    0.00       0.17   -2.27   -0.26
#   9   -0.33   -0.88    0.14    0.23   -0.19    0.00    0.00      -1.02    0.54   -0.44
#  10    2.88   -1.16    0.22   -3.42    1.37    0.00    0.00      -0.12   -8.95    3.57
#  11    0.00   -1.06    0.17    0.57   -0.17    0.00    0.00      -0.48    1.31   -0.38
#  12   -0.19   -1.64    0.38   -0.21   -0.16    0.00    0.00      -1.82   -0.46   -0.36
#  13   -0.86   -1.68    0.33   -0.55   -0.22    0.00    0.00      -3.00   -1.14   -0.46
#  14   -0.63   -1.74    0.27   -0.48   -0.27    0.00    0.00      -2.84   -0.83   -0.47
#  15   -0.58   -2.11    0.39   -0.70   -0.29    0.00    0.00      -3.30   -1.13   -0.47
#  16    0.37   -2.25    0.43    0.08   -0.21    0.00    0.00      -1.58    0.13   -0.34
#  17   -1.13   -3.29    3.04   -0.42   -0.31    0.00    0.00      -2.11   -0.64   -0.48
#  18   -0.33   -1.84    0.44   -0.67   -0.22    0.00    0.00      -2.63   -1.30   -0.42
#  19   -0.30   -0.59    0.04    0.13   -0.13    0.00    0.00      -0.86    0.38   -0.38
#  20    1.74   -0.69    0.07   -0.81   -0.09    0.00    0.00       0.23   -2.40   -0.26
#  21    0.05   -0.74    0.18    0.21   -0.13    0.00    0.00      -0.43    0.70   -0.43
#  22   -0.54   -0.60    0.41    0.45   -0.10    0.00    0.00      -0.37    1.27   -0.28
#  23   -0.26   -0.23    0.02    0.10   -0.07    0.00    0.00      -0.43    0.43   -0.28
#  24   -0.23   -0.51    0.39    0.36   -0.09    0.00    0.00      -0.08    1.08   -0.28
#  25   -0.66   -0.16    0.02    0.42   -0.04    0.00    0.00      -0.42    2.67   -0.28
#  26   -0.70   -0.13    0.00    0.23   -0.04    0.00    0.00      -0.64    1.65   -0.28
#  27   -1.93   -0.39    0.26    1.48   -0.06    0.00    0.00      -0.64    6.52   -0.28
#  28   -3.68   -0.69    0.64    1.39   -0.09    0.00    0.00      -2.43    4.14   -0.27
#  29   -2.36   -0.45    0.21    1.14   -0.07    0.00    0.00      -1.53    3.53   -0.23
#  30   -3.77   -0.50    0.19    1.47   -0.09    0.00    0.00      -2.70    3.75   -0.23
#  31   -3.13   -0.52    0.15    1.14   -0.12    0.00    0.00      -2.48    2.61   -0.28
#  32   -0.37   -0.32    0.10    0.48   -0.07    0.00    0.00      -0.19    1.66   -0.24
#  33   -0.75   -0.45    0.26    0.39   -0.10    0.00    0.00      -0.65    1.05   -0.28
#  34    0.00   -0.45    0.15    0.44   -0.10    0.00    0.00       0.04    1.25   -0.27
#  35    0.13   -0.50    0.22    0.49   -0.11    0.00    0.00       0.23    1.26   -0.28
#  36    2.16   -0.56    0.49    0.64   -0.10    0.00    0.00       2.61    1.71   -0.28
#  37    1.32   -0.43    0.12    0.54   -0.11    0.00    0.00       1.45    1.39   -0.28
#  38    0.21   -0.69    0.36    0.40   -0.16    0.00    0.00       0.12    0.68   -0.28
#  39    0.04   -0.36    0.08    0.77   -0.10    0.00    0.00       0.42    2.06   -0.28
#  40   -0.46   -0.24    0.02    0.46   -0.06    0.00    0.00      -0.29    1.80   -0.23
#  41   -0.75   -0.17    0.02    0.09   -0.04    0.00    0.00      -0.85    0.59   -0.27
#  42   -1.96   -0.30    0.06    0.76   -0.08    0.00    0.00      -1.52    2.70   -0.28
#  43   -2.77   -0.38    0.32    1.13   -0.05    0.00    0.00      -1.76    5.86   -0.28
#  44   -1.52   -0.13    0.01    0.63   -0.03    0.00    0.00      -1.05    4.51   -0.24
@<TRIPOS>MOLECULE
E44315916
   44    46     0     0     0
SMALL
USER_CHARGES


@<TRIPOS>ATOM
      1 C1         24.8340   23.6578   57.5027 C.3       1             0.0274
      2 O1         24.0474   22.9480   58.4617 O.3       1            -0.4000
      3 C2         24.6716   22.8134   59.7401 C.3       1             0.0296
      4 C3         23.7447   22.0414   60.6814 C.3       1             0.0022
      5 N1         23.4793   20.7088   60.1233 N.4       1            -0.3945
      6 H1         23.3513   20.7631   59.1239 H         1             0.4265
      7 C4         22.2942   20.1059   60.7647 C.3       1             0.0087
      8 C5         22.4391   18.6273   60.3570 C.3       1            -0.1109
      9 C6         21.7690   17.7638   61.4258 C.3       1             0.0363
     10 N2         22.8449   17.0331   62.1079 N.3       1            -0.4984
     11 C7         22.4869   16.7516   63.5045 C.3       1             0.0846
     12 C8         21.5721   15.5551   63.5572 C.ar      1            -0.0594
     13 C9         20.2027   15.7282   63.4778 C.ar      1            -0.1069
     14 C10        19.3624   14.6319   63.5265 C.ar      1            -0.0860
     15 C11        19.8904   13.3609   63.6543 C.ar      1            -0.1477
     16 C12        21.2615   13.1863   63.7334 C.ar      1             0.1003
     17 F1         21.7786   11.9445   63.8583 F         1            -0.1373
     18 C13        22.1025   14.2851   63.6793 C.ar      1            -0.1514
     19 C14        24.0025   17.9460   62.0321 C.3       1             0.0343
     20 C15        23.9490   18.3933   60.5587 C.3       1            -0.1099
     21 C16        24.5729   19.7857   60.4528 C.3       1            -0.0027
     22 H2         24.2907   23.7170   56.5596 H         1             0.1002
     23 H3         25.0341   24.6643   57.8705 H         1             0.0551
     24 H4         25.7769   23.1338   57.3468 H         1             0.0520
     25 H5         25.6110   22.2717   59.6305 H         1             0.0744
     26 H6         24.8684   23.8022   60.1542 H         1             0.0982
     27 H7         24.2208   21.9387   61.6565 H         1             0.1439
     28 H8         22.8052   22.5832   60.7910 H         1             0.1356
     29 H9         22.3373   20.2181   61.8481 H         1             0.1324
     30 H10        21.3744   20.5327   60.3647 H         1             0.1434
     31 H11        22.0957   18.4204   59.3434 H         1             0.1245
     32 H12        21.2367   18.3954   62.1371 H         1             0.0571
     33 H13        21.0772   17.0621   60.9601 H         1             0.1015
     34 H14        23.3912   16.5431   64.0763 H         1             0.0537
     35 H15        21.9788   17.6165   63.9307 H         1             0.0963
     36 H16        19.7892   16.7210   63.3780 H         1             0.1316
     37 H17        18.2928   14.7684   63.4651 H         1             0.1374
     38 H18        19.2336   12.5045   63.6927 H         1             0.1388
     39 H19        23.1725   14.1496   63.7365 H         1             0.1281
     40 H20        23.8741   18.7957   62.7028 H         1             0.0555
     41 H21        24.9314   17.4173   62.2460 H         1             0.0999
     42 H22        24.3754   17.6657   59.8681 H         1             0.1256
     43 H23        25.3251   19.8004   59.6641 H         1             0.1376
     44 H24        25.0250   20.0660   61.4042 H         1             0.1324
@<TRIPOS>BOND
     1    1    2 1 
     2    1   22 1 
     3    1   23 1 
     4    1   24 1 
     5    2    3 1 
     6    3    4 1 
     7    3   25 1 
     8    3   26 1 
     9    4    5 1 
    10    4   27 1 
    11    4   28 1 
    12    5    6 1 
    13    5   21 1 
    14    5    7 1 
    15    7    8 1 
    16    7   29 1 
    17    7   30 1 
    18    8   20 1 
    19    8    9 1 
    20    8   31 1 
    21    9   10 1 
    22    9   32 1 
    23    9   33 1 
    24   10   11 1 
    25   10   19 1 
    26   11   12 1 
    27   11   34 1 
    28   11   35 1 
    29   12   18 ar
    30   12   13 ar
    31   13   14 ar
    32   13   36 1 
    33   14   15 ar
    34   14   37 1 
    35   15   16 ar
    36   15   38 1 
    37   16   17 1 
    38   16   18 ar
    39   18   39 1 
    40   19   20 1 
    41   19   40 1 
    42   19   41 1 
    43   20   21 1 
    44   20   42 1 
    45   21   43 1 
    46   21   44 1 
##########                 Name:            E44188667
##########          Protonation:                   98
##########               SMILES:   c1csc(c1)C[NH+]2CC[C@@H](CC2)Cc3ccc(cc3)F
##########            Long Name:   4-[(4-fluorophenyl)methyl]-1-(2-thienylmethyl)piperidin-1-ium
##########          FlexRecCode: 1
##########               Number:                  668
##########   Ligand Source File: /raidb/db2/rgc/leads-emolecules-300/leads-emolecules-3-cg-0000002.db2.gz
##########           GlobalRank: 3031
##########                 Rank:                    1
##########               Setnum:                   13
##########             Matchnum:                 1999
##########                Cloud:                    1
##########        Electrostatic:           -21.680347
##########        Van der Waals:           -24.183420
##########  Ligand Polar Desolv:             9.434750
########## Ligand Apolar Desolv:            -4.303487
##########      Internal Energy:             0.000000
##########      Receptor Energy: 0.0
########## Receptor Desolvation:             0.000000
########## Receptor Hydrophobic:             0.000000
##########         Total Energy: -40.73
##########        Ligand Charge:             1.000000
##########            Arbitrary:    +999.9990
##########     heavy atom count:   20
##########           pose count:    1
##########        Ligand Energy:             0.000000
# num electro vdwattr vdwrepu polsolv apolsol rdesolv rhydroe totalscore fullpol fullapo
#   1   -0.51   -1.90    0.48   -0.38   -0.32    0.00    0.00      -2.62   -0.57   -0.48
#   2    0.36   -2.09    0.52   -0.14   -0.21    0.00    0.00      -1.56   -0.23   -0.34
#   3   -0.80   -1.62    0.26   -1.21   -0.28    0.00    0.00      -3.64   -2.05   -0.47
#   4   -0.62   -1.74    0.42   -0.58   -0.17    0.00    0.00      -2.69   -1.24   -0.37
#   5   -0.19   -1.60    0.32   -0.51   -0.14    0.00    0.00      -2.11   -1.19   -0.33
#   6    0.11   -1.17    0.22   -0.88   -0.09    0.00    0.00      -1.80   -1.96   -0.19
#   7    0.79   -0.70    0.05   -0.92   -0.07    0.00    0.00      -0.85   -2.17   -0.17
#   8    1.44   -0.79    0.17   -1.39   -0.07    0.00    0.00      -0.64   -4.10   -0.22
#   9    0.25   -1.45    0.66   -0.03   -0.15    0.00    0.00      -0.72   -0.07   -0.36
#  10    9.22   -1.75    1.32   -4.24    0.10    0.00    0.00       4.65  -11.93    0.27
#  11  -16.92   -0.18    0.09    5.46    0.20    0.00    0.00     -11.35   14.52    0.54
#  12   -1.39   -0.59    0.09    0.85   -0.11    0.00    0.00      -1.14    3.24   -0.40
#  13    2.87   -1.12    0.24   -1.12   -0.07    0.00    0.00       0.80   -3.94   -0.25
#  14    0.61   -1.76    0.66   -0.90   -0.13    0.00    0.00      -1.52   -2.82   -0.39
#  15    0.09   -1.81    0.51   -1.12   -0.17    0.00    0.00      -2.50   -3.12   -0.47
#  16   -0.01   -1.88    0.79   -1.10   -0.09    0.00    0.00      -2.29   -3.09   -0.26
#  17   -0.40   -1.80    0.35   -0.01   -0.25    0.00    0.00      -2.10   -0.02   -0.83
#  18    0.33   -0.92    0.13   -0.09   -0.14    0.00    0.00      -0.70   -0.24   -0.35
#  19    1.81   -0.99    0.17   -1.40   -0.10    0.00    0.00      -0.49   -3.45   -0.24
#  20    0.02   -1.61    0.37   -0.64   -0.20    0.00    0.00      -2.07   -1.44   -0.45
#  21   -0.09   -2.20    0.70   -0.86   -0.25    0.00    0.00      -2.69   -1.62   -0.47
#  22    0.91   -0.32    0.04    0.67   -0.11    0.00    0.00       1.20    1.74   -0.28
#  23    1.74   -0.49    0.22    2.02   -0.09    0.00    0.00       3.40    5.58   -0.25
#  24    0.11   -0.76    0.81    0.82   -0.13    0.00    0.00       0.85    1.81   -0.28
#  25   -0.17   -0.44    0.09    1.59   -0.06    0.00    0.00       1.01    4.33   -0.17
#  26   -0.84   -0.23    0.02    0.23   -0.08    0.00    0.00      -0.90    0.83   -0.28
#  27   -0.98   -0.14    0.01    0.27   -0.03    0.00    0.00      -0.88    1.91   -0.22
#  28   -0.65   -0.54    0.70    0.69   -0.07    0.00    0.00       0.12    2.58   -0.28
#  29   -2.31   -0.72    0.68    2.24   -0.08    0.00    0.00      -0.19    5.79   -0.20
#  30   -2.92   -0.60    0.34    2.73   -0.12    0.00    0.00      -0.57    6.23   -0.28
#  31   -1.81   -0.13    0.01    0.83   -0.03    0.00    0.00      -1.13    7.19   -0.28
#  32   -1.45   -0.12    0.01    0.74   -0.03    0.00    0.00      -0.86    6.13   -0.28
#  33   -1.12   -0.44    0.22    1.29   -0.08    0.00    0.00      -0.13    4.63   -0.28
#  34   -0.05   -0.61    0.61    0.55   -0.09    0.00    0.00       0.41    1.75   -0.28
#  35    0.11   -0.51    0.44    0.76   -0.09    0.00    0.00       0.71    2.28   -0.28
#  36   -2.93   -0.30    0.05    1.66   -0.06    0.00    0.00      -1.58    5.65   -0.22
#  37   -3.26   -0.36    0.07    1.28   -0.07    0.00    0.00      -2.33    3.67   -0.21
#  38   -1.27   -0.80    0.72    0.88   -0.11    0.00    0.00      -0.57    2.31   -0.28
#  39   -1.13   -0.27    0.03    0.55   -0.07    0.00    0.00      -0.89    2.19   -0.28
#  40   -0.29   -0.25    0.03    0.57   -0.07    0.00    0.00      -0.01    2.17   -0.28
#  41   -0.35   -0.75    0.63    0.25   -0.13    0.00    0.00      -0.34    0.55   -0.28
@<TRIPOS>MOLECULE
E44188667
   41    43     0     0     0
SMALL
USER_CHARGES


@<TRIPOS>ATOM
      1 F1         20.7752   12.1489   63.4386 F         1            -0.1329
      2 C1         21.1890   13.4349   63.4551 C.ar      1             0.1066
      3 C2         20.2689   14.4567   63.6176 C.ar      1            -0.1500
      4 C3         20.6933   15.7717   63.6343 C.ar      1            -0.0950
      5 C4         22.0359   16.0673   63.4889 C.ar      1            -0.1068
      6 C5         22.4975   17.5017   63.5078 C.3       1            -0.0806
      7 C6         22.4830   18.0609   62.0837 C.3       1            -0.0978
      8 C7         23.4282   17.2416   61.2009 C.3       1            -0.1457
      9 C8         23.4511   17.8464   59.7955 C.3       1            -0.0131
     10 N1         23.9223   19.2352   59.8610 N.4       1            -0.3819
     11 H1         23.9754   19.6148   58.9276 H         1             0.4227
     12 C9         25.2557   19.2685   60.4766 C.3       1             0.0964
     13 C10        26.2122   18.4506   59.6478 C.2       1            -0.2674
     14 C11        26.9986   18.8431   58.6160 C.2       1            -0.0849
     15 C12        27.8073   17.9090   57.9962 C.2       1            -0.1801
     16 C13        27.7899   16.6278   58.4387 C.2       1            -0.1182
     17 S1         26.6095   16.7146   59.7752 S.3       1             0.0926
     18 C14        22.9973   20.0450   60.6634 C.3       1            -0.0151
     19 C15        22.9587   19.5160   62.0986 C.3       1            -0.1387
     20 C16        22.9555   15.0478   63.3266 C.ar      1            -0.0824
     21 C17        22.5341   13.7317   63.3153 C.ar      1            -0.1461
     22 H2         19.2198   14.2261   63.7309 H         1             0.1389
     23 H3         19.9758   16.5690   63.7607 H         1             0.1256
     24 H4         21.8290   18.0903   64.1361 H         1             0.0887
     25 H5         23.5103   17.5523   63.9077 H         1             0.0702
     26 H6         21.4710   18.0112   61.6818 H         1             0.1055
     27 H7         24.4326   17.2637   61.6237 H         1             0.1169
     28 H8         23.0766   16.2111   61.1485 H         1             0.0912
     29 H9         24.1214   17.2657   59.1619 H         1             0.1306
     30 H10        22.4457   17.8242   59.3751 H         1             0.1333
     31 H11        25.6075   20.2990   60.5262 H         1             0.1449
     32 H12        25.2015   18.8543   61.4834 H         1             0.1416
     33 H13        26.9931   19.8704   58.2827 H         1             0.1422
     34 H14        28.4432   18.1954   57.1717 H         1             0.1494
     35 H15        28.3485   15.7764   58.0788 H         1             0.1996
     36 H16        23.3338   21.0819   60.6682 H         1             0.1298
     37 H17        21.9986   19.9906   60.2301 H         1             0.1306
     38 H18        22.2701   20.1185   62.6910 H         1             0.0905
     39 H19        23.9569   19.5688   62.5334 H         1             0.1136
     40 H20        24.0041   15.2799   63.2127 H         1             0.1347
     41 H21        23.2532   12.9353   63.1930 H         1             0.1406
@<TRIPOS>BOND
     1    1    2 1 
     2    2   21 ar
     3    2    3 ar
     4    3    4 ar
     5    3   22 1 
     6    4    5 ar
     7    4   23 1 
     8    5    6 1 
     9    5   20 ar
    10    6    7 1 
    11    6   24 1 
    12    6   25 1 
    13    7   19 1 
    14    7    8 1 
    15    7   26 1 
    16    8    9 1 
    17    8   27 1 
    18    8   28 1 
    19    9   10 1 
    20    9   29 1 
    21    9   30 1 
    22   10   11 1 
    23   10   12 1 
    24   10   18 1 
    25   12   13 1 
    26   12   31 1 
    27   12   32 1 
    28   13   17 1 
    29   13   14 2 
    30   14   15 1 
    31   14   33 1 
    32   15   16 2 
    33   15   34 1 
    34   16   17 1 
    35   16   35 1 
    36   18   19 1 
    37   18   36 1 
    38   18   37 1 
    39   19   38 1 
    40   19   39 1 
    41   20   21 ar
    42   20   40 1 
    43   21   41 1 
##########                 Name:            E46434724
##########          Protonation:                   96
##########               SMILES:   CCCCOC(=O)c1ccc(cc1)/N=C/c2ccccc2O
##########            Long Name:   butyl
##########          FlexRecCode: 1
##########               Number:                  409
##########   Ligand Source File: /raidb/db2/rgc/leads-emolecules-300/leads-emolecules-lt300-2i-0000023.db2.gz
##########           GlobalRank: 3031
##########                 Rank:                    1
##########               Setnum:                  333
##########             Matchnum:                  576
##########                Cloud:                    1
##########        Electrostatic:            -6.631421
##########        Van der Waals:           -34.248600
##########  Ligand Polar Desolv:             4.612575
########## Ligand Apolar Desolv:            -4.465476
##########      Internal Energy:             0.000000
##########      Receptor Energy: 0.0
########## Receptor Desolvation:             0.000000
########## Receptor Hydrophobic:             0.000000
##########         Total Energy: -40.73
##########        Ligand Charge:             0.000000
##########            Arbitrary:    +999.9990
##########     heavy atom count:   22
##########           pose count:    1
##########        Ligand Energy:             0.000000
# num electro vdwattr vdwrepu polsolv apolsol rdesolv rhydroe totalscore fullpol fullapo
#   1   -0.80   -1.77    0.51   -0.14   -0.12    0.00    0.00      -2.32   -0.21   -0.19
#   2   -0.82   -1.45    0.31   -0.07   -0.16    0.00    0.00      -2.19   -0.11   -0.25
#   3   -0.64   -1.37    0.28   -0.02   -0.15    0.00    0.00      -1.90   -0.03   -0.24
#   4    0.35   -1.85    0.97   -0.08   -0.07    0.00    0.00      -0.69   -0.13   -0.11
#   5   -2.80   -2.56    1.30    0.80    0.19    0.00    0.00      -3.08    1.23    0.29
#   6    4.75   -2.19    0.47   -1.79   -0.10    0.00    0.00       1.13   -2.75   -0.16
#   7   -4.31   -3.42    2.37    3.06   -0.25    0.00    0.00      -2.54    4.70   -0.39
#   8   -1.57   -2.50    1.33    0.40   -0.26    0.00    0.00      -2.60    0.63   -0.41
#   9   -0.40   -2.82    1.05    0.03   -0.28    0.00    0.00      -2.43    0.04   -0.45
#  10   -1.11   -2.69    0.80    0.09   -0.30    0.00    0.00      -3.21    0.14   -0.46
#  11    1.72   -2.45    0.81   -0.15   -0.41    0.00    0.00      -0.47   -0.24   -0.67
#  12   -2.22   -3.33    1.30    0.17   -0.25    0.00    0.00      -4.33    0.28   -0.42
#  13   -0.36   -3.44    1.91    0.07   -0.27    0.00    0.00      -2.09    0.12   -0.45
#  14   -5.97   -1.90    0.27    0.57    0.92    0.00    0.00      -6.09    0.96    1.55
#  15    1.52   -2.21    0.77    0.05   -0.50    0.00    0.00      -0.36    0.09   -0.85
#  16   -0.64   -1.73    0.27   -0.02   -0.24    0.00    0.00      -2.36   -0.04   -0.41
#  17   -0.36   -1.67    0.37   -0.09   -0.22    0.00    0.00      -1.96   -0.18   -0.45
#  18   -0.17   -1.61    0.41   -0.22   -0.21    0.00    0.00      -1.80   -0.49   -0.47
#  19    0.00   -1.98    0.53   -0.09   -0.23    0.00    0.00      -1.76   -0.18   -0.47
#  20   -0.52   -3.03    1.06   -0.01   -0.27    0.00    0.00      -2.78   -0.02   -0.46
#  21    0.64   -2.55    0.65   -0.10   -0.20    0.00    0.00      -1.55   -0.16   -0.31
#  22   -0.16   -4.80    3.79    0.77    0.66    0.00    0.00       0.27    1.14    0.98
#  23    0.28   -0.68    0.26    0.04   -0.15    0.00    0.00      -0.24    0.08   -0.28
#  24    0.33   -0.86    0.62    0.05   -0.16    0.00    0.00      -0.01    0.09   -0.28
#  25    0.22   -0.42    0.05    0.05   -0.14    0.00    0.00      -0.24    0.09   -0.28
#  26    0.67   -0.60    0.50    0.03   -0.12    0.00    0.00       0.47    0.07   -0.28
#  27    0.28   -0.66    0.32    0.02   -0.13    0.00    0.00      -0.17    0.05   -0.28
#  28    0.30   -0.79    1.41    0.03   -0.15    0.00    0.00       0.80    0.05   -0.28
#  29    0.49   -0.52    0.18    0.04   -0.14    0.00    0.00       0.05    0.07   -0.28
#  30    0.15   -0.86    0.61   -0.09   -0.16    0.00    0.00      -0.34   -0.16   -0.28
#  31    0.38   -0.72    0.68   -0.10   -0.15    0.00    0.00       0.10   -0.18   -0.28
#  32    0.77   -0.64    0.15    0.06   -0.15    0.00    0.00       0.18    0.11   -0.27
#  33    0.67   -0.53    0.08    0.06   -0.16    0.00    0.00       0.11    0.10   -0.28
#  34    1.37   -0.95    0.59    0.04   -0.16    0.00    0.00       0.89    0.07   -0.27
#  35    0.78   -1.18    1.42   -0.24   -0.15    0.00    0.00       0.64   -0.43   -0.27
#  36    0.50   -0.91    1.40    0.25   -0.12    0.00    0.00       1.11    0.52   -0.26
#  37    1.27   -0.36    0.08    0.36   -0.09    0.00    0.00       1.26    1.08   -0.28
#  38   -0.15   -0.23    0.02    0.25   -0.07    0.00    0.00      -0.18    1.00   -0.28
#  39   -0.37   -0.33    0.06    0.25   -0.10    0.00    0.00      -0.49    0.74   -0.28
#  40    0.71   -1.45    1.84    0.06   -0.16    0.00    0.00       1.00    0.10   -0.28
#  41   -1.45   -0.09    0.01    0.22    0.74    0.00    0.00      -0.57    0.36    1.22
@<TRIPOS>MOLECULE
E46434724
   41    42     0     0     0
SMALL
USER_CHARGES


@<TRIPOS>ATOM
      1 C1         11.2678   12.0225   63.0064 C.3       1            -0.1523
      2 C2         11.1858   13.5399   63.1850 C.3       1            -0.1227
      3 C3         10.5579   13.8604   64.5428 C.3       1            -0.1196
      4 C4         10.4759   15.3777   64.7214 C.3       1             0.0649
      5 O1         11.7898   15.9362   64.6604 O.3       1            -0.3484
      6 C5         12.6787   15.5110   65.5797 C.2       1             0.5104
      7 O2         12.2958   15.1600   66.6782 O.2       1            -0.5054
      8 C6         14.1157   15.4715   65.2526 C.ar      1            -0.1414
      9 C7         15.0378   15.0247   66.2051 C.ar      1            -0.0444
     10 C8         16.3685   14.9878   65.9021 C.ar      1            -0.1203
     11 C9         16.8101   15.3967   64.6390 C.ar      1             0.1261
     12 C10        15.8878   15.8435   63.6866 C.ar      1            -0.1673
     13 C11        14.5566   15.8755   63.9879 C.ar      1            -0.0336
     14 N1         18.1410   15.3601   64.3361 N.2       1            -0.4666
     15 C12        18.7886   14.2275   64.3765 C.2       1             0.2132
     16 C13        20.2207   14.1881   64.0507 C.ar      1            -0.1186
     17 C14        20.8960   15.3631   63.7020 C.ar      1            -0.0674
     18 C15        22.2389   15.3186   63.3982 C.ar      1            -0.1384
     19 C16        22.9251   14.1154   63.4361 C.ar      1            -0.0779
     20 C17        22.2715   12.9476   63.7780 C.ar      1            -0.1593
     21 C18        20.9217   12.9726   64.0926 C.ar      1             0.1612
     22 O3         20.2801   11.8272   64.4346 O.3       1            -0.4732
     23 H1         11.7151   11.7941   62.0389 H         1             0.0562
     24 H2         11.8811   11.5959   63.8001 H         1             0.0580
     25 H3         10.2656   11.5964   63.0529 H         1             0.0561
     26 H4         12.1880   13.9659   63.1385 H         1             0.0658
     27 H5         10.5725   13.9665   62.3913 H         1             0.0659
     28 H6          9.5557   13.4343   64.5895 H         1             0.0751
     29 H7         11.1714   13.4338   65.3365 H         1             0.0749
     30 H8          9.8625   15.8043   63.9277 H         1             0.0691
     31 H9         10.0286   15.6061   65.6888 H         1             0.0692
     32 H10        14.6970   14.7094   67.1802 H         1             0.1439
     33 H11        17.0804   14.6430   66.6376 H         1             0.1384
     34 H12        16.2286   16.1596   62.7117 H         1             0.1329
     35 H13        13.8442   16.2165   63.2513 H         1             0.1405
     36 H14        18.2718   13.3194   64.6497 H         1             0.1133
     37 H15        20.3653   16.3032   63.6709 H         1             0.1338
     38 H16        22.7593   16.2258   63.1289 H         1             0.1316
     39 H17        23.9778   14.0904   63.1963 H         1             0.1307
     40 H18        22.8140   12.0141   63.8047 H         1             0.1336
     41 H19        19.3411   11.9463   64.6325 H         1             0.3922
@<TRIPOS>BOND
     1    1    2 1 
     2    1   23 1 
     3    1   24 1 
     4    1   25 1 
     5    2    3 1 
     6    2   26 1 
     7    2   27 1 
     8    3    4 1 
     9    3   28 1 
    10    3   29 1 
    11    4    5 1 
    12    4   30 1 
    13    4   31 1 
    14    5    6 1 
    15    6    7 2 
    16    6    8 1 
    17    8   13 ar
    18    8    9 ar
    19    9   10 ar
    20    9   32 1 
    21   10   11 ar
    22   10   33 1 
    23   11   12 ar
    24   11   14 1 
    25   12   13 ar
    26   12   34 1 
    27   13   35 1 
    28   14   15 2 
    29   15   16 1 
    30   15   36 1 
    31   16   21 ar
    32   16   17 ar
    33   17   18 ar
    34   17   37 1 
    35   18   19 ar
    36   18   38 1 
    37   19   20 ar
    38   19   39 1 
    39   20   21 ar
    40   20   40 1 
    41   21   22 1 
    42   22   41 1 
##########                 Name:            E23806559
##########          Protonation:                   58
##########               SMILES:   Cn1c(ncc1)C[NH+]2CC[C@@H](CC2)Cc3ccc(cc3)F
##########            Long Name:   4-[(4-fluorophenyl)methyl]-1-[(1-methylimidazol-2-yl)methyl]piperidin-1-ium
##########          FlexRecCode: 1
##########               Number:                  496
##########   Ligand Source File: /raidb/db2/rgc/leads-emolecules-300/leads-emolecules-2c-0000099.db2.gz
##########           GlobalRank: 3043
##########                 Rank:                    1
##########               Setnum:                   16
##########             Matchnum:                 3851
##########                Cloud:                    1
##########        Electrostatic:           -21.294123
##########        Van der Waals:           -22.687481
##########  Ligand Polar Desolv:             6.787241
########## Ligand Apolar Desolv:            -3.525127
##########      Internal Energy:             0.000000
##########      Receptor Energy: 0.0
########## Receptor Desolvation:             0.000000
########## Receptor Hydrophobic:             0.000000
##########         Total Energy: -40.72
##########        Ligand Charge:             1.000000
##########            Arbitrary:    +999.9990
##########     heavy atom count:   21
##########           pose count:    1
##########        Ligand Energy:             0.000000
# num electro vdwattr vdwrepu polsolv apolsol rdesolv rhydroe totalscore fullpol fullapo
#   1   -0.10   -0.28    0.01    0.13   -0.09    0.00    0.00      -0.33    0.83   -0.59
#   2    0.77   -0.56    0.03   -1.98    0.30    0.00    0.00      -1.45   -9.12    1.36
#   3    0.00   -1.12    0.32   -0.23   -0.29    0.00    0.00      -1.32   -0.80   -0.98
#   4    0.00   -2.24    0.90   -0.52   -0.40    0.00    0.00      -2.27   -1.33   -1.02
#   5    0.36   -2.15    0.63   -3.03    0.77    0.00    0.00      -3.42   -8.11    2.07
#   6   -0.57   -0.85    0.08    1.01   -0.48    0.00    0.00      -0.81    3.66   -1.73
#   7   -0.85   -0.48    0.05    0.60   -0.07    0.00    0.00      -0.76    2.47   -0.31
#   8    8.28   -2.11    2.51   -3.52    0.14    0.00    0.00       5.30  -11.03    0.43
#   9  -14.91   -0.24    0.17    5.37    0.19    0.00    0.00      -9.42   15.82    0.55
#  10    0.10   -0.93    0.30    0.11   -0.13    0.00    0.00      -0.54    0.34   -0.40
#  11    1.81   -0.68    0.06   -1.09   -0.07    0.00    0.00       0.03   -3.21   -0.21
#  12    0.94   -0.60    0.03   -0.71   -0.06    0.00    0.00      -0.40   -1.84   -0.15
#  13    0.29   -1.04    0.13   -0.66   -0.08    0.00    0.00      -1.36   -1.57   -0.20
#  14    0.02   -1.48    0.23   -0.41   -0.14    0.00    0.00      -1.78   -0.98   -0.33
#  15   -0.38   -1.76    0.45   -0.54   -0.20    0.00    0.00      -2.44   -1.23   -0.45
#  16   -0.78   -1.60    0.32   -0.83   -0.25    0.00    0.00      -3.15   -1.54   -0.47
#  17    0.32   -1.93    0.52   -0.07   -0.20    0.00    0.00      -1.36   -0.12   -0.34
#  18   -0.50   -1.39    0.20   -0.37   -0.31    0.00    0.00      -2.37   -0.57   -0.48
#  19   -0.01   -2.07    0.60   -0.90   -0.24    0.00    0.00      -2.61   -1.77   -0.47
#  20    0.10   -1.56    0.31   -0.47   -0.16    0.00    0.00      -1.78   -1.09   -0.38
#  21    1.48   -0.71    0.11   -1.45   -0.06    0.00    0.00      -0.62   -4.51   -0.19
#  22    0.11   -1.56    0.82    0.16   -0.16    0.00    0.00      -0.64    0.41   -0.42
#  23   -0.05   -0.06    0.00    0.22   -0.02    0.00    0.00       0.08    3.66   -0.28
#  24   -0.13   -0.08    0.01    0.13   -0.02    0.00    0.00      -0.10    1.58   -0.28
#  25   -0.34   -0.11    0.01    0.43   -0.03    0.00    0.00      -0.03    4.26   -0.25
#  26    0.17   -0.20    0.04    0.60   -0.05    0.00    0.00       0.55    3.09   -0.28
#  27    0.00   -0.67    0.30    0.68   -0.13    0.00    0.00       0.18    1.51   -0.28
#  28   -1.14   -0.10    0.00    0.74   -0.03    0.00    0.00      -0.52    7.18   -0.25
#  29   -1.32   -0.10    0.01    0.45   -0.02    0.00    0.00      -0.98    4.49   -0.15
#  30   -2.44   -0.22    0.05    0.43   -0.05    0.00    0.00      -2.24    2.14   -0.24
#  31   -3.53   -0.40    0.13    1.61   -0.09    0.00    0.00      -2.28    4.92   -0.28
#  32   -0.88   -0.20    0.02    0.35   -0.04    0.00    0.00      -0.75    1.88   -0.22
#  33   -1.62   -0.44    0.20    0.41   -0.08    0.00    0.00      -1.52    1.50   -0.28
#  34   -1.04   -0.18    0.01    0.42   -0.06    0.00    0.00      -0.85    2.13   -0.28
#  35   -0.40   -0.56    0.28    0.68   -0.09    0.00    0.00      -0.09    2.03   -0.28
#  36   -0.23   -0.48    0.10    0.51   -0.12    0.00    0.00      -0.21    1.17   -0.28
#  37    1.28   -0.53    0.30    0.81   -0.10    0.00    0.00       1.76    2.32   -0.28
#  38    1.08   -0.27    0.02    0.28   -0.10    0.00    0.00       1.01    0.80   -0.28
#  39   -0.39   -0.67    0.48    0.65   -0.13    0.00    0.00      -0.06    1.45   -0.28
#  40   -0.35   -0.24    0.03    0.96   -0.07    0.00    0.00       0.33    3.86   -0.28
#  41   -0.69   -0.13    0.00    0.43   -0.03    0.00    0.00      -0.41    3.36   -0.21
#  42   -0.88   -0.40    0.27    0.56   -0.06    0.00    0.00      -0.51    2.19   -0.22
#  43   -3.04   -0.71    0.57    2.24   -0.12    0.00    0.00      -1.07    5.19   -0.28
#  44   -1.83   -0.67    0.47    2.63   -0.11    0.00    0.00       0.49    6.80   -0.28
@<TRIPOS>MOLECULE
E23806559
   44    46     0     0     0
SMALL
USER_CHARGES


@<TRIPOS>ATOM
      1 C1         27.9448   16.6359   61.4732 C.3       1             0.0528
      2 N1         27.8045   16.9104   60.0409 N.pl3     1            -0.4485
      3 C2         28.4098   16.2283   59.0202 C.2       1            -0.0085
      4 C3         28.0080   16.8072   57.8726 C.2       1            -0.0159
      5 N2         27.1800   17.8153   58.1841 N.2       1            -0.4434
      6 C4         27.0494   17.8799   59.4810 C.2       1             0.1170
      7 C5         26.1998   18.8741   60.2299 C.3       1             0.0836
      8 N3         24.8862   18.9824   59.5811 N.4       1            -0.3816
      9 H1         25.0072   19.2927   58.6286 H         1             0.4199
     10 C6         24.0610   19.9535   60.3094 C.3       1            -0.0047
     11 C7         23.9402   19.5288   61.7745 C.3       1            -0.1405
     12 C8         23.2869   18.1456   61.8470 C.3       1            -0.0951
     13 C9         23.2351   17.6800   63.3035 C.3       1            -0.0733
     14 C10        22.5957   16.3172   63.3728 C.ar      1            -0.1052
     15 C11        21.2263   16.2036   63.5239 C.ar      1            -0.0847
     16 C12        20.6388   14.9543   63.5875 C.ar      1            -0.1487
     17 C13        21.4224   13.8161   63.4996 C.ar      1             0.1039
     18 F1         20.8491   12.5943   63.5612 F         1            -0.1344
     19 C14        22.7938   13.9311   63.3478 C.ar      1            -0.1512
     20 C15        23.3785   15.1815   63.2796 C.ar      1            -0.0915
     21 C16        24.1161   17.1566   61.0225 C.3       1            -0.1502
     22 C17        24.2297   17.6696   59.5869 C.3       1            -0.0062
     23 H2         28.6209   15.7932   61.6171 H         1             0.0851
     24 H3         28.3491   17.5158   61.9738 H         1             0.1058
     25 H4         26.9688   16.3948   61.8943 H         1             0.0905
     26 H5         29.0808   15.3875   59.1167 H         1             0.1909
     27 H6         28.3010   16.5115   56.8761 H         1             0.1863
     28 H7         26.0703   18.5391   61.2590 H         1             0.1404
     29 H8         26.6895   19.8479   60.2237 H         1             0.1631
     30 H9         24.5255   20.9380   60.2541 H         1             0.1300
     31 H10        23.0686   19.9953   59.8606 H         1             0.1294
     32 H11        24.9320   19.4870   62.2244 H         1             0.0971
     33 H12        23.3256   20.2501   62.3131 H         1             0.1137
     34 H13        22.2752   18.1986   61.4451 H         1             0.0927
     35 H14        24.2473   17.6273   63.7044 H         1             0.0810
     36 H15        22.6483   18.3868   63.8903 H         1             0.0870
     37 H16        20.6153   17.0915   63.5926 H         1             0.1334
     38 H17        19.5690   14.8658   63.7063 H         1             0.1390
     39 H18        23.4060   13.0440   63.2793 H         1             0.1380
     40 H19        24.4477   15.2714   63.1571 H         1             0.1306
     41 H20        25.1116   17.0656   61.4568 H         1             0.0898
     42 H21        23.6273   16.1822   61.0237 H         1             0.1167
     43 H22        23.2336   17.7601   59.1535 H         1             0.1345
     44 H23        24.8188   16.9667   58.9979 H         1             0.1314
@<TRIPOS>BOND
     1    1    2 1 
     2    1   23 1 
     3    1   24 1 
     4    1   25 1 
     5    2    6 1 
     6    2    3 1 
     7    3    4 2 
     8    3   26 1 
     9    4    5 1 
    10    4   27 1 
    11    5    6 2 
    12    6    7 1 
    13    7    8 1 
    14    7   28 1 
    15    7   29 1 
    16    8    9 1 
    17    8   22 1 
    18    8   10 1 
    19   10   11 1 
    20   10   30 1 
    21   10   31 1 
    22   11   12 1 
    23   11   32 1 
    24   11   33 1 
    25   12   13 1 
    26   12   21 1 
    27   12   34 1 
    28   13   14 1 
    29   13   35 1 
    30   13   36 1 
    31   14   20 ar
    32   14   15 ar
    33   15   16 ar
    34   15   37 1 
    35   16   17 ar
    36   16   38 1 
    37   17   18 1 
    38   17   19 ar
    39   19   20 ar
    40   19   39 1 
    41   20   40 1 
    42   21   22 1 
    43   21   41 1 
    44   21   42 1 
    45   22   43 1 
    46   22   44 1 
##########                 Name:            E36675962
##########          Protonation:                  100
##########               SMILES:   Cc1ccc(cc1)NC(=[NH2+])NCc2ccc3c(c2)OCO3
##########            Long Name:   [(1,3-benzodioxol-5-ylmethylamino)-(4-methylanilino)methylene]ammonium
##########          FlexRecCode: 1
##########               Number:                  520
##########   Ligand Source File: /raidb/db2/rgc/leads-emolecules-300/leads-lt300-emolecules-1-0000205.db2.gz
##########           GlobalRank: 3043
##########                 Rank:                    1
##########               Setnum:                  118
##########             Matchnum:                 6383
##########                Cloud:                    1
##########        Electrostatic:           -22.961782
##########        Van der Waals:           -23.578135
##########  Ligand Polar Desolv:             8.282156
########## Ligand Apolar Desolv:            -2.467095
##########      Internal Energy:             0.000000
##########      Receptor Energy: 0.0
########## Receptor Desolvation:             0.000000
########## Receptor Hydrophobic:             0.000000
##########         Total Energy: -40.72
##########        Ligand Charge:             1.000000
##########            Arbitrary:    +999.9990
##########     heavy atom count:   21
##########           pose count:    1
##########        Ligand Energy:             0.000000
# num electro vdwattr vdwrepu polsolv apolsol rdesolv rhydroe totalscore fullpol fullapo
#   1    0.03   -0.75    0.17   -0.42   -0.05    0.00    0.00      -1.03   -1.54   -0.20
#   2    0.12   -1.14    0.30   -0.52   -0.12    0.00    0.00      -1.36   -1.72   -0.41
#   3    0.38   -1.54    0.35   -0.76   -0.17    0.00    0.00      -1.74   -1.98   -0.45
#   4    0.92   -2.09    1.30   -0.89   -0.18    0.00    0.00      -0.93   -2.31   -0.46
#   5   -1.18   -1.75    0.58    1.08   -0.21    0.00    0.00      -1.48    3.07   -0.61
#   6   16.10   -3.39    3.44   -6.67    0.41    0.00    0.00       9.89  -17.02    1.05
#   7  -15.21   -1.36    0.22    8.49   -1.78    0.00    0.00      -9.64   21.94   -4.60
#   8   20.07   -2.21    0.80  -10.10    0.35    0.00    0.00       8.92  -22.55    0.79
#   9  -14.90   -0.09    0.01    6.75    0.22    0.00    0.00      -8.01   14.92    0.49
#  10  -10.31   -0.03    0.00    4.56    0.16    0.00    0.00      -5.60   12.78    0.46
#  11    8.26   -0.89    0.04   -7.60    0.66    0.00    0.00       0.47  -19.67    1.72
#  12   -1.10   -0.92    0.11    1.81   -0.17    0.00    0.00      -0.26    4.25   -0.39
#  13    0.10   -1.40    0.22   -0.69   -0.16    0.00    0.00      -1.93   -1.59   -0.37
#  14    0.07   -1.43    0.21   -0.46   -0.19    0.00    0.00      -1.79   -1.11   -0.45
#  15   -0.12   -1.79    0.44   -0.80   -0.22    0.00    0.00      -2.48   -1.71   -0.47
#  16    0.22   -1.73    0.43   -0.22   -0.18    0.00    0.00      -1.48   -0.39   -0.33
#  17   -1.17   -1.77    0.24   -1.18    0.32    0.00    0.00      -3.55   -1.89    0.52
#  18    0.85   -1.57    0.44    0.90    0.01    0.00    0.00       0.62    1.46    0.02
#  19   -2.06   -1.65    0.32   -1.37    0.30    0.00    0.00      -4.46   -2.36    0.52
#  20    0.19   -1.69    0.51   -0.24   -0.17    0.00    0.00      -1.40   -0.47   -0.33
#  21   -0.42   -1.85    0.60   -0.54   -0.20    0.00    0.00      -2.41   -1.20   -0.45
#  22    1.14   -1.15    0.20   -0.81   -0.12    0.00    0.00      -0.75   -2.67   -0.38
#  23    0.23   -0.77    0.07   -0.51   -0.12    0.00    0.00      -1.09   -1.97   -0.45
#  24   -0.09   -0.33    0.07    0.16   -0.08    0.00    0.00      -0.26    0.58   -0.28
#  25    0.06   -0.34    0.15    0.17   -0.07    0.00    0.00      -0.03    0.66   -0.28
#  26   -0.02   -0.08    0.00    0.07   -0.02    0.00    0.00      -0.06    0.86   -0.28
#  27   -0.57   -0.33    0.05    0.61   -0.10    0.00    0.00      -0.35    1.62   -0.28
#  28   -1.27   -0.82    1.30    1.09   -0.09    0.00    0.00       0.21    3.26   -0.28
#  29  -17.73   -0.28    0.16    5.78    0.27    0.00    0.00     -11.80   12.67    0.59
#  30   -4.21   -0.01    0.00    1.68    0.08    0.00    0.00      -2.47   12.79    0.58
#  31   -0.64   -0.46    0.09    1.86   -0.11    0.00    0.00       0.73    4.50   -0.27
#  32   -1.08   -0.32    0.08    1.49   -0.08    0.00    0.00       0.08    4.96   -0.28
#  33   -0.45   -0.28    0.04    1.25   -0.07    0.00    0.00       0.48    4.81   -0.28
#  34    0.09   -0.46    0.22    0.57   -0.10    0.00    0.00       0.31    1.53   -0.28
#  35    0.20   -0.88    0.92    0.82   -0.16    0.00    0.00       0.90    1.41   -0.28
#  36    0.41   -0.54    0.26    0.52   -0.13    0.00    0.00       0.52    1.13   -0.28
#  37    1.44   -0.71    1.19    1.28   -0.11    0.00    0.00       3.09    3.32   -0.28
#  38   -1.23   -0.24    0.04    0.90   -0.05    0.00    0.00      -0.57    4.31   -0.26
#  39   -0.09   -0.09    0.00    0.20   -0.03    0.00    0.00       0.00    2.24   -0.28
@<TRIPOS>MOLECULE
E36675962
   39    41     0     0     0
SMALL
USER_CHARGES


@<TRIPOS>ATOM
      1 C1         27.9706   14.6453   60.6567 C.3       1            -0.1291
      2 C2         26.9335   15.6810   60.3066 C.ar      1            -0.0615
      3 C3         25.5908   15.3992   60.4806 C.ar      1            -0.0920
      4 C4         24.6378   16.3462   60.1608 C.ar      1            -0.1059
      5 C5         25.0290   17.5829   59.6644 C.ar      1             0.0852
      6 N1         24.0665   18.5444   59.3400 N.pl3     1            -0.6403
      7 C6         23.2079   19.0129   60.3085 C.cat     1             0.7363
      8 N2         22.3109   19.9089   60.0059 N.pl3     1            -0.7674
      9 H1         22.2485   20.2455   59.0982 H         1             0.4404
     10 H2         21.7058   20.2393   60.6882 H         1             0.4439
     11 N3         23.2963   18.5358   61.5950 N.pl3     1            -0.6866
     12 C7         22.0990   18.4730   62.4370 C.3       1             0.1486
     13 C8         21.8501   17.0454   62.8506 C.ar      1            -0.1322
     14 C9         22.8988   16.2648   63.3004 C.ar      1            -0.0768
     15 C10        22.6755   14.9547   63.6810 C.ar      1            -0.1032
     16 C11        21.3989   14.4208   63.6126 C.ar      1             0.0651
     17 O1         20.9185   13.1810   63.9219 O.3       1            -0.3006
     18 C12        19.4925   13.3403   64.0419 C.3       1             0.2117
     19 O2         19.2002   14.4605   63.1857 O.3       1            -0.3029
     20 C13        20.3425   15.2073   63.1600 C.ar      1             0.0346
     21 C14        20.5728   16.5209   62.7848 C.ar      1            -0.0762
     22 C15        26.3783   17.8629   59.4914 C.ar      1            -0.1388
     23 C16        27.3266   16.9133   59.8176 C.ar      1            -0.0921
     24 H3         27.4763   13.7456   61.0230 H         1             0.0830
     25 H4         28.5557   14.4029   59.7696 H         1             0.0766
     26 H5         28.6298   15.0385   61.4306 H         1             0.0758
     27 H6         25.2872   14.4373   60.8666 H         1             0.1419
     28 H7         23.5893   16.1252   60.2963 H         1             0.1388
     29 H8         24.0039   18.8810   58.4325 H         1             0.4414
     30 H9         24.1514   18.2408   61.9452 H         1             0.4367
     31 H10        22.2465   19.0880   63.3248 H         1             0.1024
     32 H11        21.2409   18.8438   61.8765 H         1             0.1059
     33 H12        23.8946   16.6792   63.3543 H         1             0.1441
     34 H13        23.4967   14.3470   64.0313 H         1             0.1466
     35 H14        18.9765   12.4461   63.6923 H         1             0.1420
     36 H15        19.2175   13.5640   65.0726 H         1             0.0937
     37 H16        19.7547   17.1345   62.4373 H         1             0.1406
     38 H17        26.6859   18.8237   59.1055 H         1             0.1298
     39 H18        28.3761   17.1318   59.6868 H         1             0.1403
@<TRIPOS>BOND
     1    1    2 1 
     2    1   24 1 
     3    1   25 1 
     4    1   26 1 
     5    2   23 ar
     6    2    3 ar
     7    3    4 ar
     8    3   27 1 
     9    4    5 ar
    10    4   28 1 
    11    5    6 1 
    12    5   22 ar
    13    6    7 1 
    14    6   29 1 
    15    7    8 2 
    16    7   11 1 
    17    8    9 1 
    18    8   10 1 
    19   11   12 1 
    20   11   30 1 
    21   12   13 1 
    22   12   31 1 
    23   12   32 1 
    24   13   21 ar
    25   13   14 ar
    26   14   15 ar
    27   14   33 1 
    28   15   16 ar
    29   15   34 1 
    30   16   20 ar
    31   16   17 1 
    32   17   18 1 
    33   18   19 1 
    34   18   35 1 
    35   18   36 1 
    36   19   20 1 
    37   20   21 ar
    38   21   37 1 
    39   22   23 ar
    40   22   38 1 
    41   23   39 1 
##########                 Name:             E3704079
##########          Protonation:                  100
##########               SMILES:   Cc1ccccc1CNc2c(n3ccsc3n2)[N+](=O)[O-]
##########            Long Name:   5-nitro-N-(o-tolylmethyl)imidazo[2,1-b]thiazol-6-amine
##########          FlexRecCode: 1
##########               Number:                  186
##########   Ligand Source File: /raidb/db2/rgc/leads-emolecules-300/leads-emolecules-3-by-0000034.db2.gz
##########           GlobalRank: 3054
##########                 Rank:                    1
##########               Setnum:                   63
##########             Matchnum:                 4569
##########                Cloud:                    1
##########        Electrostatic:            -4.917900
##########        Van der Waals:           -34.202076
##########  Ligand Polar Desolv:             4.072234
########## Ligand Apolar Desolv:            -5.663659
##########      Internal Energy:             0.000000
##########      Receptor Energy: 0.0
########## Receptor Desolvation:             0.000000
########## Receptor Hydrophobic:             0.000000
##########         Total Energy: -40.71
##########        Ligand Charge:             0.000000
##########            Arbitrary:    +999.9990
##########     heavy atom count:   20
##########           pose count:    1
##########        Ligand Energy:             0.000000
# num electro vdwattr vdwrepu polsolv apolsol rdesolv rhydroe totalscore fullpol fullapo
#   1   -0.82   -2.23    0.67    0.07   -0.12    0.00    0.00      -2.43    0.11   -0.19
#   2   -0.53   -2.72    0.61    0.09   -0.27    0.00    0.00      -2.82    0.14   -0.41
#   3   -0.39   -3.92    1.40    0.09   -0.30    0.00    0.00      -3.12    0.13   -0.45
#   4   -0.71   -3.35    1.20    0.03   -0.31    0.00    0.00      -3.14    0.05   -0.47
#   5   -1.37   -2.34    0.76    0.07   -0.31    0.00    0.00      -3.18    0.10   -0.47
#   6   -1.27   -2.62    0.88    0.10   -0.28    0.00    0.00      -3.19    0.16   -0.45
#   7   -1.79   -2.43    0.63    0.17   -0.24    0.00    0.00      -3.65    0.27   -0.37
#   8    3.35   -1.70    0.54   -0.27   -0.24    0.00    0.00       1.68   -0.46   -0.40
#   9   -7.85   -1.87    0.30    1.56    0.91    0.00    0.00      -6.95    2.65    1.55
#  10    3.93   -1.69    0.29   -1.17   -1.08    0.00    0.00       0.28   -2.24   -2.07
#  11   -0.36   -1.63    0.35    0.39   -1.14    0.00    0.00      -2.39    0.69   -2.00
#  12   -0.76   -1.58    0.37    0.55    0.43    0.00    0.00      -0.98    1.23    0.96
#  13   -0.03   -1.52    0.34   -0.04   -0.39    0.00    0.00      -1.64   -0.09   -0.92
#  14    0.60   -1.27    0.18   -0.21   -0.10    0.00    0.00      -0.80   -0.57   -0.27
#  15   -0.74   -2.25    0.30    0.29   -0.34    0.00    0.00      -2.75    0.69   -0.82
#  16    0.75   -1.77    0.46   -0.27   -1.05    0.00    0.00      -1.88   -0.60   -2.36
#  17   -5.57   -2.86    2.01    1.24    1.01    0.00    0.00      -4.18    2.61    2.13
#  18    0.20   -2.15    0.32   -0.28    0.27    0.00    0.00      -1.64   -0.44    0.43
#  19   -0.22   -2.72    0.70    0.64   -0.43    0.00    0.00      -2.01    0.99   -0.66
#  20   -0.62   -3.04    1.10    0.68   -0.42    0.00    0.00      -2.29    1.08   -0.66
#  21    0.19   -1.25    0.85   -0.01   -0.18    0.00    0.00      -0.41   -0.01   -0.28
#  22    0.39   -0.54    0.20    0.00   -0.14    0.00    0.00      -0.09    0.01   -0.28
#  23    0.74   -0.90    0.74   -0.07   -0.12    0.00    0.00       0.38   -0.13   -0.21
#  24   -0.58   -1.32    1.18    0.09   -0.19    0.00    0.00      -0.82    0.13   -0.28
#  25    0.77   -1.09    1.28    0.17   -0.17    0.00    0.00       0.96    0.28   -0.28
#  26    1.23   -0.36    0.05    0.10   -0.14    0.00    0.00       0.88    0.21   -0.28
#  27    1.30   -0.74    0.49   -0.02   -0.15    0.00    0.00       0.89   -0.03   -0.28
#  28    1.30   -0.61    0.17   -0.10   -0.15    0.00    0.00       0.61   -0.19   -0.28
#  29    2.19   -1.06    1.47   -0.10   -0.13    0.00    0.00       2.37   -0.20   -0.25
#  30    3.27   -0.04    0.00   -0.63    0.23    0.00    0.00       2.83   -1.60    0.58
#  31   -0.45   -0.32    0.05    0.18   -0.10    0.00    0.00      -0.63    0.54   -0.28
#  32   -1.09   -0.20    0.02    0.71   -0.05    0.00    0.00      -0.61    3.84   -0.28
@<TRIPOS>MOLECULE
E3704079
   32    34     0     0     0
SMALL
USER_CHARGES


@<TRIPOS>ATOM
      1 C1         18.1367   14.8213   66.6571 C.3       1            -0.1240
      2 C2         16.6843   15.0370   66.3173 C.ar      1            -0.0627
      3 C3         15.6994   14.5972   67.1820 C.ar      1            -0.1234
      4 C4         14.3676   14.7948   66.8704 C.ar      1            -0.1028
      5 C5         14.0201   15.4327   65.6940 C.ar      1            -0.1278
      6 C6         15.0047   15.8731   64.8299 C.ar      1            -0.0922
      7 C7         16.3371   15.6793   65.1437 C.ar      1            -0.1199
      8 C8         17.4109   16.1641   64.2040 C.3       1             0.1777
      9 N1         18.4252   15.1198   64.0408 N.pl3     1            -0.7045
     10 C9         19.7586   15.4712   63.7789 C.2       1             0.4203
     11 C10        20.7825   14.6108   63.6029 C.2       1            -0.0781
     12 N2         21.9336   15.3676   63.3663 N.pl3     1            -0.4070
     13 C11        23.2711   15.1523   63.1163 C.2       1             0.0252
     14 C12        24.1045   16.1760   62.9346 C.2       1            -0.1662
     15 S1         23.0109   17.5770   63.1116 S.3       1             0.1882
     16 C13        21.5133   16.6695   63.4172 C.2       1             0.2464
     17 N3         20.2329   16.7224   63.6548 N.2       1            -0.4591
     18 N4         20.7013   13.1264   63.6522 N.pl3     1             0.0543
     19 O1         19.6414   12.5857   63.8669 O.2       1            -0.1193
     20 O2         21.6950   12.4605   63.4776 O.3       1            -0.1191
     21 H1         18.2132   14.3028   67.6128 H         1             0.0751
     22 H2         18.6066   14.2199   65.8789 H         1             0.0703
     23 H3         18.6408   15.7854   66.7255 H         1             0.0689
     24 H4         15.9708   14.0988   68.1010 H         1             0.1256
     25 H5         13.5980   14.4507   67.5456 H         1             0.1254
     26 H6         12.9793   15.5866   65.4501 H         1             0.1257
     27 H7         14.7334   16.3712   63.9107 H         1             0.1252
     28 H8         16.9685   16.3954   63.2351 H         1             0.0775
     29 H9         17.8754   17.0607   64.6147 H         1             0.0800
     30 H10        18.1753   14.1854   64.1138 H         1             0.4144
     31 H11        23.6489   14.1418   63.0673 H         1             0.1770
     32 H12        25.1655   16.1622   62.7331 H         1             0.2287
@<TRIPOS>BOND
     1    1    2 1 
     2    1   21 1 
     3    1   22 1 
     4    1   23 1 
     5    2    7 ar
     6    2    3 ar
     7    3    4 ar
     8    3   24 1 
     9    4    5 ar
    10    4   25 1 
    11    5    6 ar
    12    5   26 1 
    13    6    7 ar
    14    6   27 1 
    15    7    8 1 
    16    8    9 1 
    17    8   28 1 
    18    8   29 1 
    19    9   10 1 
    20    9   30 1 
    21   10   17 1 
    22   10   11 2 
    23   11   12 1 
    24   11   18 1 
    25   12   16 1 
    26   12   13 1 
    27   13   14 2 
    28   13   31 1 
    29   14   15 1 
    30   14   32 1 
    31   15   16 1 
    32   16   17 2 
    33   18   19 2 
    34   18   20 1 
##########                 Name:             E2701187
##########          Protonation:                  100
##########               SMILES:   CN(C)c1nc(c(c(n1)NCc2ccccc2)[N+](=O)[O-])N
##########            Long Name:   N6-benzyl-N2,N2-dimethyl-5-nitro-pyrimidine-2,4,6-triamine
##########          FlexRecCode: 1
##########               Number:                  234
##########   Ligand Source File: /raidb/db2/rgc/leads-emolecules-300/leads-emolecules-3-az-0000009.db2.gz
##########           GlobalRank: 3065
##########                 Rank:                    1
##########               Setnum:                   91
##########             Matchnum:                 2746
##########                Cloud:                    1
##########        Electrostatic:            -6.752571
##########        Van der Waals:           -32.739521
##########  Ligand Polar Desolv:             3.640981
########## Ligand Apolar Desolv:            -4.853844
##########      Internal Energy:             0.000000
##########      Receptor Energy: 0.0
########## Receptor Desolvation:             0.000000
########## Receptor Hydrophobic:             0.000000
##########         Total Energy: -40.7
##########        Ligand Charge:             0.000000
##########            Arbitrary:    +999.9990
##########     heavy atom count:   21
##########           pose count:    1
##########        Ligand Energy:             0.000000
# num electro vdwattr vdwrepu polsolv apolsol rdesolv rhydroe totalscore fullpol fullapo
#   1   -1.26   -0.87    0.09    0.11   -0.24    0.00    0.00      -2.17    0.25   -0.53
#   2    5.12   -1.46    0.23    0.00    0.90    0.00    0.00       4.79    0.01    1.97
#   3   -1.51   -1.58    0.41    0.13   -0.30    0.00    0.00      -2.86    0.23   -0.55
#   4   -0.68   -1.83    0.97   -0.86   -2.00    0.00    0.00      -4.41   -2.01   -4.66
#   5    1.43   -2.07    2.23    0.87    0.70    0.00    0.00       3.16    2.23    1.81
#   6    0.24   -2.05    1.81   -0.89   -0.97    0.00    0.00      -1.86   -1.96   -2.13
#   7    1.28   -1.95    0.48    0.20    0.44    0.00    0.00       0.46    0.43    0.92
#   8   -1.28   -1.70    0.48    1.00   -0.36    0.00    0.00      -1.87    1.75   -0.64
#   9    4.14   -1.65    0.30   -1.19   -1.07    0.00    0.00       0.53   -2.29   -2.05
#  10   -6.86   -1.94    0.39    1.07    1.00    0.00    0.00      -6.34    1.84    1.72
#  11    2.86   -1.56    0.36   -0.09   -0.26    0.00    0.00       1.32   -0.15   -0.44
#  12   -1.70   -2.36    0.60    0.07   -0.23    0.00    0.00      -3.63    0.11   -0.37
#  13   -1.43   -2.58    0.79    0.05   -0.28    0.00    0.00      -3.45    0.08   -0.45
#  14   -1.37   -2.41    0.57    0.01   -0.31    0.00    0.00      -3.50    0.01   -0.47
#  15   -0.60   -3.64    1.22   -0.01   -0.31    0.00    0.00      -3.33   -0.02   -0.47
#  16   -0.21   -4.02    1.51    0.01   -0.32    0.00    0.00      -3.02    0.02   -0.47
#  17   -0.72   -2.66    0.60    0.05   -0.29    0.00    0.00      -3.03    0.08   -0.45
#  18   -4.74   -2.11    0.76    1.07    0.82    0.00    0.00      -4.20    2.29    1.74
#  19    0.18   -2.37    0.61   -0.21    0.16    0.00    0.00      -1.63   -0.34    0.26
#  20   -0.80   -3.54    1.45    0.68   -0.42    0.00    0.00      -2.62    1.08   -0.66
#  21   -0.35   -2.80    1.59    0.68   -0.42    0.00    0.00      -1.31    1.07   -0.66
#  22   -0.59   -0.26    0.02    0.23   -0.08    0.00    0.00      -0.68    0.73   -0.26
#  23   -1.08   -0.18    0.01    0.02   -0.06    0.00    0.00      -1.29    0.10   -0.28
#  24   -0.97   -0.51    0.19    0.03   -0.10    0.00    0.00      -1.35    0.09   -0.28
#  25   -0.63   -0.85    0.75    0.09   -0.15    0.00    0.00      -0.78    0.18   -0.28
#  26   -1.38   -0.41    0.06    0.03   -0.12    0.00    0.00      -1.82    0.07   -0.25
#  27   -1.83   -0.68    0.46    0.30   -0.13    0.00    0.00      -1.88    0.64   -0.27
#  28   -1.55   -0.02    0.00    0.24    0.18    0.00    0.00      -1.15    0.81    0.59
#  29   -0.18   -0.04    0.00   -0.04    0.25    0.00    0.00      -0.01   -0.09    0.55
#  30    2.89   -0.04    0.00   -0.54    0.21    0.00    0.00       2.53   -1.32    0.52
#  31    2.18   -0.95    1.55   -0.02   -0.14    0.00    0.00       2.61   -0.05   -0.28
#  32    1.12   -0.65    0.23   -0.03   -0.15    0.00    0.00       0.53   -0.05   -0.28
#  33    1.66   -0.66    0.30    0.03   -0.15    0.00    0.00       1.18    0.05   -0.28
#  34    1.38   -0.38    0.04    0.14   -0.15    0.00    0.00       1.03    0.26   -0.28
#  35    0.40   -1.28    1.29    0.20   -0.17    0.00    0.00       0.45    0.33   -0.28
#  36   -0.69   -1.22    0.58    0.17   -0.19    0.00    0.00      -1.34    0.26   -0.28
#  37    0.77   -0.49    0.09    0.02   -0.15    0.00    0.00       0.24    0.04   -0.28
@<TRIPOS>MOLECULE
E2701187
   37    38     0     0     0
SMALL
USER_CHARGES


@<TRIPOS>ATOM
      1 C1         22.1806   19.0023   61.8717 C.3       1             0.1035
      2 N1         21.2906   17.9436   61.3885 N.pl3     1            -0.5779
      3 C2         20.5255   18.1365   60.1541 C.3       1             0.0975
      4 C3         21.1729   16.7614   62.0980 C.ar      1             0.6535
      5 N2         22.2501   16.0150   62.2909 N.ar      1            -0.6333
      6 C4         22.1748   14.8717   62.9684 C.ar      1             0.5545
      7 N3         23.3069   14.0968   63.1661 N.pl3     1            -0.8233
      8 C5         20.9443   14.4650   63.4759 C.ar      1            -0.3269
      9 C6         19.8352   15.2754   63.2532 C.ar      1             0.5504
     10 N4         18.5897   14.9107   63.7402 N.pl3     1            -0.6974
     11 C7         17.5408   15.9210   63.8989 C.3       1             0.1732
     12 C8         16.6352   15.5303   65.0384 C.ar      1            -0.1210
     13 C9         15.3026   15.8972   65.0192 C.ar      1            -0.0973
     14 C10        14.4719   15.5388   66.0645 C.ar      1            -0.1212
     15 C11        14.9738   14.8132   67.1287 C.ar      1            -0.1066
     16 C12        16.3062   14.4455   67.1473 C.ar      1            -0.1212
     17 C13        17.1359   14.8001   66.1001 C.ar      1            -0.0972
     18 N5         19.9873   16.4084   62.5709 N.ar      1            -0.6267
     19 N6         20.8183   13.2000   64.2345 N.pl3     1             0.0442
     20 O1         21.7912   12.5067   64.4195 O.2       1            -0.1462
     21 O2         19.7424   12.8604   64.6689 O.3       1            -0.1462
     22 H1         22.6607   18.6798   62.7957 H         1             0.0801
     23 H2         22.9421   19.2083   61.1194 H         1             0.0652
     24 H3         21.6014   19.9064   62.0595 H         1             0.0651
     25 H4         19.9248   17.2488   59.9566 H         1             0.0580
     26 H5         19.8709   19.0011   60.2640 H         1             0.0835
     27 H6         21.2115   18.3034   59.3238 H         1             0.0748
     28 H7         24.1614   14.3865   62.8098 H         1             0.4192
     29 H8         23.2448   13.2647   63.6609 H         1             0.4137
     30 H9         18.4127   13.9867   63.9761 H         1             0.4126
     31 H10        17.9968   16.8877   64.1123 H         1             0.0831
     32 H11        16.9593   15.9885   62.9795 H         1             0.0830
     33 H12        14.9106   16.4642   64.1879 H         1             0.1244
     34 H13        13.4310   15.8262   66.0499 H         1             0.1264
     35 H14        14.3250   14.5337   67.9456 H         1             0.1257
     36 H15        16.6985   13.8788   67.9789 H         1             0.1264
     37 H16        18.1760   14.5096   66.1129 H         1             0.1244
@<TRIPOS>BOND
     1    1    2 1 
     2    1   22 1 
     3    1   23 1 
     4    1   24 1 
     5    2    3 1 
     6    2    4 1 
     7    3   25 1 
     8    3   26 1 
     9    3   27 1 
    10    4   18 ar
    11    4    5 ar
    12    5    6 ar
    13    6    7 1 
    14    6    8 ar
    15    7   28 1 
    16    7   29 1 
    17    8    9 ar
    18    8   19 1 
    19    9   10 1 
    20    9   18 ar
    21   10   11 1 
    22   10   30 1 
    23   11   12 1 
    24   11   31 1 
    25   11   32 1 
    26   12   17 ar
    27   12   13 ar
    28   13   14 ar
    29   13   33 1 
    30   14   15 ar
    31   14   34 1 
    32   15   16 ar
    33   15   35 1 
    34   16   17 ar
    35   16   36 1 
    36   17   37 1 
    37   19   20 2 
    38   19   21 1 
##########                 Name:             E4414636
##########          Protonation:                   95
##########               SMILES:   c1cc(oc1)C[NH2+]CCCCOc2ccc(cc2)F
##########            Long Name:   4-(4-fluorophenoxy)butyl-(2-furylmethyl)ammonium
##########          FlexRecCode: 1
##########               Number:                  404
##########   Ligand Source File: /raidb/db2/rgc/leads-emolecules-300/leads-emolecules-3-cf-0000026.db2.gz
##########           GlobalRank: 3065
##########                 Rank:                    1
##########               Setnum:                    9
##########             Matchnum:                 5042
##########                Cloud:                    1
##########        Electrostatic:           -25.156559
##########        Van der Waals:           -21.094004
##########  Ligand Polar Desolv:             8.513810
########## Ligand Apolar Desolv:            -2.961530
##########      Internal Energy:             0.000000
##########      Receptor Energy: 0.0
########## Receptor Desolvation:             0.000000
########## Receptor Hydrophobic:             0.000000
##########         Total Energy: -40.7
##########        Ligand Charge:             1.000000
##########            Arbitrary:    +999.9990
##########     heavy atom count:   19
##########           pose count:    1
##########        Ligand Energy:             0.000000
# num electro vdwattr vdwrepu polsolv apolsol rdesolv rhydroe totalscore fullpol fullapo
#   1   -0.81   -3.49    2.87   -0.19   -0.32    0.00    0.00      -1.95   -0.29   -0.48
#   2    0.29   -2.54    0.71   -0.11   -0.21    0.00    0.00      -1.86   -0.17   -0.34
#   3   -0.28   -2.10    0.54   -0.39   -0.25    0.00    0.00      -2.48   -0.72   -0.47
#   4   -0.22   -1.65    0.45   -0.52   -0.21    0.00    0.00      -2.15   -1.13   -0.46
#   5    0.63   -1.62    0.36    0.54   -0.14    0.00    0.00      -0.24    1.17   -0.31
#   6   -2.21   -1.82    0.85   -1.83    0.40    0.00    0.00      -4.62   -4.07    0.89
#   7   -0.25   -0.92    0.17    0.13   -0.04    0.00    0.00      -0.91    0.30   -0.09
#   8    1.42   -1.13    0.28   -1.37   -0.12    0.00    0.00      -0.92   -2.69   -0.24
#   9    3.21   -1.12    0.18   -2.01   -0.11    0.00    0.00       0.14   -4.22   -0.24
#  10    0.16   -0.79    0.08    0.27   -0.16    0.00    0.00      -0.44    0.67   -0.40
#  11   12.03   -1.54    1.08   -5.87    0.25    0.00    0.00       5.95  -17.42    0.73
#  12  -12.09   -0.05    0.01    4.36    0.15    0.00    0.00      -7.63   16.48    0.57
#  13  -12.28   -0.05    0.00    5.63    0.19    0.00    0.00      -6.51   17.07    0.57
#  14   -1.19   -0.52    0.05    1.02   -0.12    0.00    0.00      -0.77    3.86   -0.45
#  15    1.06   -0.78    0.14   -0.30   -0.07    0.00    0.00       0.05   -1.33   -0.31
#  16    0.68   -0.76    0.11   -0.88   -0.11    0.00    0.00      -0.95   -4.02   -0.51
#  17   -0.12   -1.17    0.40   -1.11   -0.13    0.00    0.00      -2.12   -4.26   -0.51
#  18   -0.03   -1.12    0.30   -0.24   -0.07    0.00    0.00      -1.17   -0.88   -0.27
#  19    0.89   -0.61    0.04   -0.90    0.06    0.00    0.00      -0.51   -3.63    0.25
#  20   -1.38   -1.60    0.20   -1.00   -0.23    0.00    0.00      -4.02   -1.80   -0.42
#  21   -0.51   -2.05    0.41   -0.56   -0.29    0.00    0.00      -2.99   -0.91   -0.47
#  22    0.10   -0.49    0.15    0.41   -0.13    0.00    0.00       0.04    0.90   -0.28
#  23   -0.10   -0.24    0.03    0.36   -0.07    0.00    0.00      -0.03    1.42   -0.28
#  24   -0.36   -0.21    0.01    0.40   -0.07    0.00    0.00      -0.23    1.51   -0.27
#  25   -0.40   -0.44    0.43    0.42   -0.07    0.00    0.00      -0.07    1.58   -0.27
#  26   -1.01   -0.41    0.08    0.78   -0.12    0.00    0.00      -0.68    1.77   -0.28
#  27   -1.10   -0.68    0.91    0.61   -0.10    0.00    0.00      -0.37    1.65   -0.28
#  28   -2.13   -0.43    0.09    1.30   -0.11    0.00    0.00      -1.27    3.21   -0.28
#  29   -2.62   -0.69    0.63    1.44   -0.12    0.00    0.00      -1.36    3.45   -0.28
#  30   -2.78   -0.47    0.30    1.79   -0.09    0.00    0.00      -1.25    5.82   -0.28
#  31   -1.79   -0.16    0.01    0.80   -0.04    0.00    0.00      -1.19    5.33   -0.28
#  32   -1.70   -0.20    0.03    1.28   -0.05    0.00    0.00      -0.64    7.19   -0.28
#  33   -1.31   -0.12    0.00    0.71   -0.03    0.00    0.00      -0.74    5.73   -0.28
#  34   -0.77   -0.10    0.00    0.50   -0.03    0.00    0.00      -0.39    4.42   -0.28
#  35    0.22   -0.25    0.07    0.34   -0.06    0.00    0.00       0.32    1.63   -0.28
#  36   -0.33   -0.27    0.06    0.79   -0.06    0.00    0.00       0.19    3.41   -0.28
#  37    1.53   -0.32    0.03    1.18   -0.09    0.00    0.00       2.34    3.00   -0.22
#  38    0.40   -0.65    0.39    0.74   -0.15    0.00    0.00       0.73    1.42   -0.28
@<TRIPOS>MOLECULE
E4414636
   38    39     0     0     0
SMALL
USER_CHARGES


@<TRIPOS>ATOM
      1 F1         21.2514   11.7816   64.5656 F         1            -0.1353
      2 C1         21.0808   13.0608   64.1657 C.ar      1             0.0692
      3 C2         22.1815   13.8398   63.8514 C.ar      1            -0.1108
      4 C3         22.0086   15.1479   63.4423 C.ar      1            -0.1182
      5 C4         20.7316   15.6809   63.3464 C.ar      1             0.1134
      6 O1         20.5600   16.9679   62.9436 O.3       1            -0.3115
      7 C5         21.5345   17.5021   62.0452 C.3       1             0.0565
      8 C6         20.8790   18.5542   61.1485 C.3       1            -0.1181
      9 C7         21.9225   19.1261   60.1868 C.3       1            -0.1475
     10 C8         23.0545   19.7723   60.9878 C.3       1            -0.0086
     11 N1         24.0564   20.3215   60.0644 N.4       1            -0.5119
     12 H1         24.4302   19.5784   59.4932 H         1             0.4311
     13 H2         23.6241   21.0153   59.4730 H         1             0.4299
     14 C9         25.1433   20.9420   60.8335 C.3       1             0.0952
     15 C10        26.1710   21.5052   59.8862 C.2       1            -0.1216
     16 C11        27.2382   20.8458   59.4006 C.2       1            -0.1345
     17 C12        27.9269   21.7467   58.5562 C.2       1            -0.2213
     18 C13        27.2395   22.9028   58.5764 C.2       1             0.0198
     19 O2         26.1738   22.7488   59.3791 O.3       1            -0.1688
     20 C14        19.6298   14.8994   63.6616 C.ar      1            -0.1803
     21 C15        19.8053   13.5898   64.0649 C.ar      1            -0.1137
     22 H3         23.1757   13.4247   63.9264 H         1             0.1472
     23 H4         22.8673   15.7555   63.1975 H         1             0.1435
     24 H5         22.3410   17.9624   62.6160 H         1             0.0669
     25 H6         21.9383   16.6993   61.4282 H         1             0.0669
     26 H7         20.0726   18.0938   60.5778 H         1             0.0882
     27 H8         20.4753   19.3568   61.7655 H         1             0.0882
     28 H9         22.3263   18.3234   59.5697 H         1             0.0923
     29 H10        21.4556   19.8756   59.5477 H         1             0.0924
     30 H11        22.6506   20.5750   61.6048 H         1             0.1375
     31 H12        23.5215   19.0227   61.6267 H         1             0.1371
     32 H13        24.7394   21.7445   61.4505 H         1             0.1578
     33 H14        25.6102   20.1923   61.4723 H         1             0.1471
     34 H15        27.5160   19.8243   59.6150 H         1             0.1621
     35 H16        28.8316   21.5454   58.0018 H         1             0.1644
     36 H17        27.4985   23.8011   58.0357 H         1             0.2196
     37 H18        18.6350   15.3133   63.5878 H         1             0.1348
     38 H19        18.9474   12.9796   64.3058 H         1             0.1409
@<TRIPOS>BOND
     1    1    2 1 
     2    2   21 ar
     3    2    3 ar
     4    3    4 ar
     5    3   22 1 
     6    4    5 ar
     7    4   23 1 
     8    5    6 1 
     9    5   20 ar
    10    6    7 1 
    11    7    8 1 
    12    7   24 1 
    13    7   25 1 
    14    8    9 1 
    15    8   26 1 
    16    8   27 1 
    17    9   10 1 
    18    9   28 1 
    19    9   29 1 
    20   10   11 1 
    21   10   30 1 
    22   10   31 1 
    23   11   12 1 
    24   11   13 1 
    25   11   14 1 
    26   14   15 1 
    27   14   32 1 
    28   14   33 1 
    29   15   19 1 
    30   15   16 2 
    31   16   17 1 
    32   16   34 1 
    33   17   18 2 
    34   17   35 1 
    35   18   19 1 
    36   18   36 1 
    37   20   21 ar
    38   20   37 1 
    39   21   38 1 
##########                 Name:            E26764059
##########          Protonation:                  100
##########               SMILES:   Cc1ccc(cc1)C(=O)[C@H](C#N)/N=N/c2ccccc2Cl
##########            Long Name:   (2S)-2-[(E)-(2-chlorophenyl)azo]-3-oxo-3-(p-tolyl)propanenitrile
##########          FlexRecCode: 1
##########               Number:                  207
##########   Ligand Source File: /raidb/db2/rgc/leads-emolecules-300/leads-emolecules-lt300-2i-0000272.db2.gz
##########           GlobalRank: 3080
##########                 Rank:                    1
##########               Setnum:                  108
##########             Matchnum:                 6218
##########                Cloud:                    1
##########        Electrostatic:            -7.043737
##########        Van der Waals:           -34.208515
##########  Ligand Polar Desolv:             4.913298
########## Ligand Apolar Desolv:            -4.355712
##########      Internal Energy:             0.000000
##########      Receptor Energy: 0.0
########## Receptor Desolvation:             0.000000
########## Receptor Hydrophobic:             0.000000
##########         Total Energy: -40.69
##########        Ligand Charge:             0.000000
##########            Arbitrary:    +999.9990
##########     heavy atom count:   21
##########           pose count:    1
##########        Ligand Energy:             0.000000
# num electro vdwattr vdwrepu polsolv apolsol rdesolv rhydroe totalscore fullpol fullapo
#   1   -1.39   -1.44    0.25   -0.30   -0.13    0.00    0.00      -3.01   -0.45   -0.20
#   2   -0.57   -2.44    0.80   -0.04   -0.26    0.00    0.00      -2.52   -0.07   -0.41
#   3   -1.12   -2.88    0.82   -0.05   -0.29    0.00    0.00      -3.52   -0.08   -0.45
#   4   -0.33   -2.75    0.65    0.05   -0.30    0.00    0.00      -2.68    0.07   -0.46
#   5   -2.00   -2.22    0.59    0.15   -0.25    0.00    0.00      -3.73    0.24   -0.40
#   6   -1.01   -2.68    0.83   -0.04   -0.25    0.00    0.00      -3.16   -0.07   -0.43
#   7   -1.78   -3.02    1.19   -0.14   -0.27    0.00    0.00      -4.02   -0.24   -0.45
#   8    3.73   -1.92    0.36   -0.66   -0.16    0.00    0.00       1.35   -1.14   -0.28
#   9   -3.21   -3.47    3.84    1.45    0.22    0.00    0.00      -1.16    2.59    0.39
#  10    0.75   -1.24    0.25   -0.10   -0.15    0.00    0.00      -0.50   -0.18   -0.26
#  11   -1.34   -2.09    0.71    0.42    0.84    0.00    0.00      -1.46    0.85    1.71
#  12   -0.92   -1.71    0.38    0.32    0.45    0.00    0.00      -1.47    0.71    1.01
#  13   -0.02   -1.82    0.77    0.01   -0.32    0.00    0.00      -1.39    0.03   -0.72
#  14    0.53   -2.19    0.93    0.06   -0.22    0.00    0.00      -0.89    0.11   -0.44
#  15    2.16   -1.90    0.33   -0.16   -0.26    0.00    0.00       0.17   -0.29   -0.47
#  16    1.33   -1.69    0.27   -0.09   -0.22    0.00    0.00      -0.39   -0.20   -0.47
#  17    1.58   -1.71    0.38   -0.10   -0.20    0.00    0.00      -0.06   -0.23   -0.46
#  18   -0.16   -1.60    0.27    0.00   -0.13    0.00    0.00      -1.62   -0.01   -0.29
#  19    0.03   -6.31    3.87    0.08   -0.47    0.00    0.00      -2.80    0.16   -0.97
#  20    0.71   -2.01    0.49   -0.56   -0.81    0.00    0.00      -2.17   -0.92   -1.32
#  21   -1.41   -2.74    0.65    1.84    0.43    0.00    0.00      -1.23    2.96    0.69
#  22    0.78   -0.53    0.17    0.19   -0.16    0.00    0.00       0.45    0.33   -0.28
#  23    0.96   -0.67    0.55    0.20   -0.16    0.00    0.00       0.88    0.36   -0.28
#  24    0.67   -0.37    0.06    0.18   -0.13    0.00    0.00       0.42    0.40   -0.28
#  25    0.62   -0.71    0.19    0.24   -0.16    0.00    0.00       0.18    0.41   -0.28
#  26    0.35   -0.67    0.14   -0.13   -0.16    0.00    0.00      -0.47   -0.22   -0.26
#  27    1.71   -0.62    0.23    0.28   -0.11    0.00    0.00       1.48    0.53   -0.21
#  28    0.91   -1.07    1.60    0.38   -0.16    0.00    0.00       1.66    0.68   -0.28
#  29    1.01   -0.73    0.60    0.30   -0.12    0.00    0.00       1.06    0.61   -0.25
#  30   -0.72   -0.68    0.45   -0.14   -0.13    0.00    0.00      -1.21   -0.29   -0.26
#  31   -3.12   -0.59    0.22    0.47   -0.14    0.00    0.00      -3.16    0.95   -0.28
#  32   -3.84   -0.46    0.15    0.59   -0.11    0.00    0.00      -3.66    1.56   -0.28
#  33   -1.96   -0.45    0.18    0.23   -0.08    0.00    0.00      -2.08    0.77   -0.28
@<TRIPOS>MOLECULE
E26764059
   33    34     0     0     0
SMALL
USER_CHARGES


@<TRIPOS>ATOM
      1 C1         13.4176   15.9353   65.7224 C.3       1            -0.1246
      2 C2         14.8680   15.6312   65.4480 C.ar      1            -0.0449
      3 C3         15.6547   15.0755   66.4419 C.ar      1            -0.1318
      4 C4         16.9827   14.7949   66.1988 C.ar      1            -0.0466
      5 C5         17.5339   15.0728   64.9439 C.ar      1            -0.1762
      6 C6         16.7322   15.6340   63.9448 C.ar      1            -0.0697
      7 C7         15.4047   15.9040   64.2018 C.ar      1            -0.1303
      8 C8         18.9505   14.7768   64.6763 C.2       1             0.4216
      9 O1         19.7598   14.8205   65.5781 O.2       1            -0.4021
     10 C9         19.3951   14.4195   63.2815 C.3       1             0.1159
     11 N1         19.7673   15.6391   62.5602 N.2       1            -0.2041
     12 N2         20.6803   16.3596   62.9902 N.2       1            -0.1641
     13 C10        21.0283   17.4998   62.3158 C.ar      1             0.0314
     14 C11        20.3533   17.8572   61.1465 C.ar      1            -0.0726
     15 C12        20.7087   19.0064   60.4724 C.ar      1            -0.1233
     16 C13        21.7324   19.8057   60.9513 C.ar      1            -0.0671
     17 C14        22.4062   19.4589   62.1081 C.ar      1            -0.1206
     18 C15        22.0566   18.3142   62.7975 C.ar      1             0.0304
     19 Cl1        22.8979   17.8840   64.2539 Cl        1            -0.0396
     20 C16        20.5562   13.5177   63.3526 C.1       1             0.1956
     21 N3         21.4524   12.8218   63.4074 N.1       1            -0.3697
     22 H1         13.1756   15.6562   66.7479 H         1             0.0784
     23 H2         13.2373   17.0013   65.5838 H         1             0.0727
     24 H3         12.7910   15.3683   65.0340 H         1             0.0724
     25 H4         15.2275   14.8614   67.4104 H         1             0.1335
     26 H5         17.5955   14.3618   66.9756 H         1             0.1390
     27 H6         17.1508   15.8518   62.9734 H         1             0.1285
     28 H7         14.7831   16.3333   63.4300 H         1             0.1327
     29 H8         18.5798   13.9216   62.7566 H         1             0.1537
     30 H9         19.5549   17.2343   60.7709 H         1             0.1520
     31 H10        20.1874   19.2835   59.5681 H         1             0.1399
     32 H11        22.0064   20.7044   60.4187 H         1             0.1425
     33 H12        23.2043   20.0868   62.4756 H         1             0.1472
@<TRIPOS>BOND
     1    1    2 1 
     2    1   22 1 
     3    1   23 1 
     4    1   24 1 
     5    2    7 ar
     6    2    3 ar
     7    3    4 ar
     8    3   25 1 
     9    4    5 ar
    10    4   26 1 
    11    5    6 ar
    12    5    8 1 
    13    6    7 ar
    14    6   27 1 
    15    7   28 1 
    16    8    9 2 
    17    8   10 1 
    18   10   11 1 
    19   10   20 1 
    20   10   29 1 
    21   11   12 2 
    22   12   13 1 
    23   13   18 ar
    24   13   14 ar
    25   14   15 ar
    26   14   30 1 
    27   15   16 ar
    28   15   31 1 
    29   16   17 ar
    30   16   32 1 
    31   17   18 ar
    32   17   33 1 
    33   18   19 1 
    34   20   21 3 
##########                 Name:            E36623797
##########          Protonation:                   72
##########               SMILES:   c1c(cc(c2c1OCO2)Cl)CN3CC[NH+](CC3)CCO
##########            Long Name:   2-[4-[(7-chloro-1,3-benzodioxol-5-yl)methyl]piperazin-1-ium-1-yl]ethanol
##########          FlexRecCode: 1
##########               Number:                  358
##########   Ligand Source File: /raidb/db2/rgc/leads-emolecules-300/leads-emolecules-lt300-2j-0000059.db2.gz
##########           GlobalRank: 3102
##########                 Rank:                    1
##########               Setnum:                   63
##########             Matchnum:                 1287
##########                Cloud:                    1
##########        Electrostatic:           -27.719309
##########        Van der Waals:           -22.892729
##########  Ligand Polar Desolv:            10.532810
########## Ligand Apolar Desolv:            -0.602743
##########      Internal Energy:             0.000000
##########      Receptor Energy: 0.0
########## Receptor Desolvation:             0.000000
########## Receptor Hydrophobic:             0.000000
##########         Total Energy: -40.68
##########        Ligand Charge:             1.000000
##########            Arbitrary:    +999.9990
##########     heavy atom count:   20
##########           pose count:    1
##########        Ligand Energy:             0.000000
# num electro vdwattr vdwrepu polsolv apolsol rdesolv rhydroe totalscore fullpol fullapo
#   1    7.41   -1.75    0.63   -4.88    0.58    0.00    0.00       1.99  -14.21    1.68
#   2   -0.72   -0.88    0.19    0.29   -0.04    0.00    0.00      -1.17    0.92   -0.14
#   3    0.26   -0.69    0.09   -0.03   -0.10    0.00    0.00      -0.47   -0.11   -0.33
#   4    9.93   -1.74    1.03   -4.10    0.16    0.00    0.00       5.29  -10.78    0.43
#   5  -16.43   -0.12    0.03    5.44    0.20    0.00    0.00     -10.88   14.09    0.52
#   6    0.06   -1.35    0.38    0.17   -0.18    0.00    0.00      -0.93    0.39   -0.42
#   7   -0.39   -1.71    0.95    0.20   -0.17    0.00    0.00      -1.11    0.46   -0.39
#   8    5.00   -1.17    0.09   -5.60    1.36    0.00    0.00      -0.32  -13.19    3.21
#   9   -0.25   -1.37    0.33    1.01   -0.18    0.00    0.00      -0.46    2.21   -0.39
#  10   -0.07   -1.71    0.37   -0.17   -0.15    0.00    0.00      -1.72   -0.38   -0.34
#  11   -0.41   -1.80    0.49   -0.40   -0.20    0.00    0.00      -2.32   -0.89   -0.45
#  12    0.24   -1.63    0.34   -0.05   -0.19    0.00    0.00      -1.29   -0.09   -0.33
#  13    0.13   -1.99    0.46   -0.15   -0.18    0.00    0.00      -1.74   -0.27   -0.33
#  14   -1.44   -2.75    0.78   -0.88    0.33    0.00    0.00      -3.96   -1.38    0.52
#  15    0.58   -1.92    0.44    0.84    0.01    0.00    0.00      -0.06    1.27    0.02
#  16   -1.49   -1.48    0.17   -1.13    0.32    0.00    0.00      -3.61   -1.87    0.52
#  17    0.00   -2.00    0.63   -0.22   -0.14    0.00    0.00      -1.73   -0.46   -0.30
#  18    0.15   -5.77    5.60   -0.30   -0.46    0.00    0.00      -0.79   -0.65   -0.99
#  19    0.06   -1.75    0.45   -0.44   -0.15    0.00    0.00      -1.84   -1.05   -0.35
#  20   -0.19   -0.55    0.02    0.02   -0.13    0.00    0.00      -0.82    0.07   -0.37
#  21    0.14   -1.02    0.27    0.09   -0.15    0.00    0.00      -0.67    0.26   -0.41
#  22   -7.59   -0.09    0.01    3.82    0.49    0.00    0.00      -3.37    9.70    1.24
#  23   -0.49   -0.16    0.01    0.38   -0.03    0.00    0.00      -0.29    2.55   -0.23
#  24   -2.16   -0.63    0.79    0.49   -0.08    0.00    0.00      -1.60    1.65   -0.28
#  25   -1.96   -0.16    0.03    0.63   -0.02    0.00    0.00      -1.49    4.74   -0.15
#  26   -1.70   -0.20    0.02    0.88   -0.06    0.00    0.00      -1.06    4.46   -0.28
#  27   -4.23   -0.75    0.64    2.21   -0.11    0.00    0.00      -2.25    5.42   -0.28
#  28   -3.48   -0.42    0.12    1.54   -0.11    0.00    0.00      -2.34    4.06   -0.28
#  29   -1.02   -1.00    1.93    0.91   -0.07    0.00    0.00       0.74    2.57   -0.21
#  30   -1.65   -1.08    1.39    1.24   -0.13    0.00    0.00      -0.22    2.77   -0.28
#  31   -0.21   -0.56    0.13    0.92   -0.12    0.00    0.00       0.17    2.14   -0.28
#  32    0.01   -0.91    1.28    1.11   -0.13    0.00    0.00       1.37    2.31   -0.27
#  33    1.84   -0.47    0.21    0.86   -0.10    0.00    0.00       2.33    2.39   -0.28
#  34    0.39   -0.72    0.33    0.95   -0.17    0.00    0.00       0.78    1.54   -0.28
#  35   -0.18   -1.03    0.94    0.58   -0.18    0.00    0.00       0.13    0.90   -0.28
#  36   -0.37   -0.36    0.10    1.00   -0.08    0.00    0.00       0.29    3.69   -0.28
#  37   -0.62   -0.16    0.01    0.41   -0.03    0.00    0.00      -0.39    2.72   -0.22
#  38   -1.06   -0.16    0.01    0.27   -0.03    0.00    0.00      -0.97    1.65   -0.21
#  39   -3.14   -0.45    0.13    1.45   -0.11    0.00    0.00      -2.11    3.73   -0.28
#  40   -2.67   -0.37    0.14    1.16   -0.06    0.00    0.00      -1.79    4.54   -0.23
@<TRIPOS>MOLECULE
E36623797
   40    42     0     0     0
SMALL
USER_CHARGES


@<TRIPOS>ATOM
      1 O1         24.1661   22.7609   59.2410 O.3       1            -0.5799
      2 C1         24.1743   22.3578   60.6119 C.3       1             0.0468
      3 C2         24.4808   20.8615   60.7018 C.3       1            -0.0154
      4 N1         23.4513   20.1062   59.9754 N.4       1            -0.3817
      5 H1         23.4457   20.3909   59.0074 H         1             0.4357
      6 C3         22.1359   20.3738   60.5717 C.3       1            -0.0026
      7 C4         22.1496   19.9593   62.0446 C.3       1             0.0246
      8 N2         22.4701   18.5284   62.1448 N.3       1            -0.5333
      9 C5         22.4372   18.0781   63.5428 C.3       1             0.1030
     10 C6         22.2779   16.5801   63.5845 C.ar      1            -0.0744
     11 C7         21.0128   16.0214   63.6106 C.ar      1            -0.0737
     12 C8         20.8649   14.6458   63.6488 C.ar      1             0.0533
     13 C9         21.9919   13.8265   63.6609 C.ar      1             0.0518
     14 O2         21.5655   12.5326   63.6994 O.3       1            -0.2938
     15 C10        20.1994   12.5401   63.2586 C.3       1             0.2112
     16 O3         19.7652   13.8418   63.6802 O.3       1            -0.2999
     17 C11        23.2558   14.3916   63.6342 C.ar      1            -0.0214
     18 Cl1        24.6626   13.3748   63.6493 Cl        1            -0.0390
     19 C12        23.3963   15.7680   63.5907 C.ar      1            -0.1026
     20 C13        23.7735   18.2410   61.5296 C.3       1             0.0168
     21 C14        23.7464   18.6699   60.0612 C.3       1            -0.0071
     22 H2         23.5088   22.3021   58.6999 H         1             0.4101
     23 H3         24.9381   22.9182   61.1509 H         1             0.0716
     24 H4         23.1981   22.5559   61.0546 H         1             0.0942
     25 H5         25.4569   20.6634   60.2590 H         1             0.1390
     26 H6         24.4869   20.5541   61.7476 H         1             0.1393
     27 H7         21.9123   21.4380   60.4959 H         1             0.1374
     28 H8         21.3736   19.8038   60.0407 H         1             0.1409
     29 H9         22.9025   20.5389   62.5786 H         1             0.0625
     30 H10        21.1691   20.1438   62.4836 H         1             0.1262
     31 H11        23.3675   18.3584   64.0368 H         1             0.0636
     32 H12        21.5976   18.5472   64.0558 H         1             0.1052
     33 H13        20.1407   16.6584   63.6015 H         1             0.1455
     34 H14        20.1385   12.4404   62.1748 H         1             0.1425
     35 H15        19.6250   11.7576   63.7545 H         1             0.0949
     36 H16        24.3820   16.2085   63.5658 H         1             0.1441
     37 H17        24.5532   18.7923   62.0551 H         1             0.0625
     38 H18        23.9778   17.1723   61.5926 H         1             0.1262
     39 H19        22.9757   18.1086   59.5328 H         1             0.1414
     40 H20        24.7168   18.4706   59.6068 H         1             0.1346
@<TRIPOS>BOND
     1    1    2 1 
     2    1   22 1 
     3    2    3 1 
     4    2   23 1 
     5    2   24 1 
     6    3    4 1 
     7    3   25 1 
     8    3   26 1 
     9    4    5 1 
    10    4   21 1 
    11    4    6 1 
    12    6    7 1 
    13    6   27 1 
    14    6   28 1 
    15    7    8 1 
    16    7   29 1 
    17    7   30 1 
    18    8    9 1 
    19    8   20 1 
    20    9   10 1 
    21    9   31 1 
    22    9   32 1 
    23   10   19 ar
    24   10   11 ar
    25   11   12 ar
    26   11   33 1 
    27   12   16 1 
    28   12   13 ar
    29   13   14 1 
    30   13   17 ar
    31   14   15 1 
    32   15   16 1 
    33   15   34 1 
    34   15   35 1 
    35   17   18 1 
    36   17   19 ar
    37   19   36 1 
    38   20   21 1 
    39   20   37 1 
    40   20   38 1 
    41   21   39 1 
    42   21   40 1 
##########                 Name:            E43638289
##########          Protonation:                   30
##########               SMILES:   c1cnccc1C(=O)NC[C@@H]2[C@H]([C@@H](CO2)[NH2+]C3COC3)O
##########            Long Name:   (pyridine-4-carbonylamino)methyl]tetrahydrofuran-3-yl]-(oxetan-3-yl)ammonium
##########          FlexRecCode: 1
##########               Number:                  296
##########   Ligand Source File: /raidb/db2/rgc/leads-emolecules-300/leads-emolecules-2f-0000237.db2.gz
##########           GlobalRank: 3119
##########                 Rank:                    1
##########               Setnum:                  172
##########             Matchnum:                 3028
##########                Cloud:                    1
##########        Electrostatic:           -32.053711
##########        Van der Waals:           -22.003551
##########  Ligand Polar Desolv:            12.611776
########## Ligand Apolar Desolv:             0.773737
##########      Internal Energy:             0.000000
##########      Receptor Energy: 0.0
########## Receptor Desolvation:             0.000000
########## Receptor Hydrophobic:             0.000000
##########         Total Energy: -40.67
##########        Ligand Charge:             1.000000
##########            Arbitrary:    +999.9990
##########     heavy atom count:   21
##########           pose count:    1
##########        Ligand Energy:             0.000000
# num electro vdwattr vdwrepu polsolv apolsol rdesolv rhydroe totalscore fullpol fullapo
#   1    4.95   -0.60    0.03   -3.54    0.43    0.00    0.00       1.27  -14.07    1.71
#   2   -1.05   -0.90    0.21    0.72   -0.05    0.00    0.00      -1.07    2.18   -0.15
#   3   -0.35   -0.58    0.03    0.33   -0.04    0.00    0.00      -0.61    0.95   -0.13
#   4   -0.93   -1.09    0.31    0.70   -0.14    0.00    0.00      -1.16    1.98   -0.40
#   5    3.05   -1.24    0.13   -4.00    0.88    0.00    0.00      -1.18  -10.49    2.31
#   6    0.06   -1.67    0.33    2.28   -0.29    0.00    0.00       0.70    5.19   -0.66
#   7   -0.83   -2.94    2.13   -1.48    0.19    0.00    0.00      -2.91   -3.04    0.40
#   8   -0.27   -1.67    0.39   -0.45   -0.18    0.00    0.00      -2.17   -0.99   -0.41
#   9   -0.18   -1.91    0.51   -0.60   -0.22    0.00    0.00      -2.41   -1.21   -0.45
#  10    0.34   -2.60    0.66    0.36   -0.59    0.00    0.00      -1.83    0.60   -0.98
#  11   -1.68   -2.27    0.35   -1.57    1.30    0.00    0.00      -3.87   -2.48    2.05
#  12    0.56   -1.74    0.25    0.17   -0.59    0.00    0.00      -1.35    0.28   -0.98
#  13   -0.75   -1.63    0.31   -0.44   -0.23    0.00    0.00      -2.75   -0.87   -0.45
#  14    4.85   -0.87    0.04   -3.96    0.63    0.00    0.00       0.69   -9.24    1.46
#  15   -0.73   -1.15    0.20    0.20   -0.06    0.00    0.00      -1.55    0.43   -0.14
#  16    0.32   -1.24    0.33    0.40   -0.11    0.00    0.00      -0.30    1.07   -0.29
#  17   14.04   -3.32    4.57   -6.07    0.24    0.00    0.00       9.47  -16.24    0.64
#  18  -18.65   -0.26    0.18    7.23    0.24    0.00    0.00     -11.26   17.04    0.56
#  19  -14.25   -0.30    0.32    6.48    0.20    0.00    0.00      -7.54   17.34    0.54
#  20    0.98   -1.11    0.37    0.29   -0.11    0.00    0.00       0.41    0.92   -0.35
#  21   -0.16   -0.74    0.15    0.07   -0.05    0.00    0.00      -0.74    0.23   -0.18
#  22    1.58   -0.71    0.04   -2.96    0.52    0.00    0.00      -1.53   -9.24    1.61
#  23   -0.53   -1.17    0.49    0.11   -0.06    0.00    0.00      -1.15    0.33   -0.17
#  24   -4.55   -0.01    0.00    1.10    0.13    0.00    0.00      -3.33   10.40    1.24
#  25   -1.33   -0.83    1.10    1.42   -0.08    0.00    0.00       0.28    4.63   -0.26
#  26   -1.61   -0.15    0.01    0.32   -0.04    0.00    0.00      -1.48    2.04   -0.28
#  27   -0.82   -0.50    0.52    0.38   -0.06    0.00    0.00      -0.49    1.69   -0.28
#  28   -0.45   -0.63    0.25    0.64   -0.11    0.00    0.00      -0.30    1.63   -0.28
#  29   -1.77   -0.01    0.00    1.47    0.09    0.00    0.00      -0.22    7.62    0.44
#  30   -0.11   -0.34    0.07    1.25   -0.07    0.00    0.00       0.79    3.68   -0.22
#  31    0.90   -1.09    0.89    1.35   -0.16    0.00    0.00       1.89    2.40   -0.28
#  32    1.09   -0.44    0.18    0.48   -0.12    0.00    0.00       1.18    1.14   -0.28
#  33    1.92   -0.37    0.09    0.25   -0.10    0.00    0.00       1.79    0.70   -0.27
#  34   -3.05   -0.51    0.24    1.02   -0.11    0.00    0.00      -2.42    2.57   -0.28
#  35   -2.37   -0.52    0.20    2.01   -0.09    0.00    0.00      -0.78    5.01   -0.22
#  36   -4.97   -0.61    0.57    1.96   -0.09    0.00    0.00      -3.14    6.07   -0.27
#  37   -2.11   -0.27    0.05    1.58   -0.05    0.00    0.00      -0.81    6.47   -0.22
#  38    0.03   -0.61    0.66    1.04   -0.07    0.00    0.00       1.05    3.92   -0.27
#  39   -0.15   -0.12    0.01    0.36   -0.04    0.00    0.00       0.06    2.80   -0.28
#  40   -1.17   -0.49    0.30    0.69   -0.07    0.00    0.00      -0.74    2.79   -0.28
#  41   -1.90   -0.38    0.16    1.04   -0.07    0.00    0.00      -1.16    3.99   -0.28
@<TRIPOS>MOLECULE
E43638289
   41    43     0     0     0
SMALL
USER_CHARGES


@<TRIPOS>ATOM
      1 O1         25.4065   20.8503   61.4064 O.3       1            -0.5407
      2 C1         24.0486   20.4874   61.6644 C.3       1             0.0727
      3 C2         23.8481   18.9612   61.5740 C.3       1             0.0272
      4 C3         24.2659   18.2820   62.8797 C.3       1             0.1249
      5 N1         23.6449   16.9577   62.9616 N.am      1            -0.7255
      6 C4         22.4348   16.8152   63.5379 C.2       1             0.5665
      7 O2         21.8591   17.7853   63.9894 O.2       1            -0.5201
      8 C5         21.8068   15.4761   63.6205 C.ar      1            -0.0963
      9 C6         22.5878   14.3167   63.6495 C.ar      1            -0.1439
     10 C7         21.9605   13.0883   63.7275 C.ar      1             0.1010
     11 N2         20.6461   13.0013   63.7738 N.ar      1            -0.4621
     12 C8         19.8732   14.0687   63.7488 C.ar      1             0.1044
     13 C9         20.4168   15.3367   63.6775 C.ar      1            -0.1128
     14 O3         22.4379   18.8332   61.3651 O.3       1            -0.3439
     15 C10        21.9239   19.9937   60.7144 C.3       1             0.0333
     16 C11        23.1192   20.9365   60.5172 C.3       1            -0.0131
     17 N3         22.7171   22.3399   60.6820 N.4       1            -0.4975
     18 H1         21.8834   22.5166   60.1419 H         1             0.4336
     19 H2         22.5320   22.5244   61.6565 H         1             0.4334
     20 C12        23.7987   23.2172   60.2144 C.3       1            -0.0607
     21 C13        24.6100   23.8650   61.3521 C.3       1             0.0394
     22 O4         24.5318   25.0722   60.5680 O.3       1            -0.3403
     23 C14        23.3379   24.6484   59.8799 C.3       1             0.0391
     24 H3         25.7706   20.4624   60.5989 H         1             0.4104
     25 H4         23.7117   20.8783   62.6245 H         1             0.0975
     26 H5         24.4028   18.5486   60.7312 H         1             0.1106
     27 H6         25.3505   18.1767   62.9037 H         1             0.0930
     28 H7         23.9410   18.8885   63.7249 H         1             0.0841
     29 H8         24.1046   16.1833   62.6011 H         1             0.4077
     30 H9         23.6653   14.3805   63.6111 H         1             0.1365
     31 H10        22.5552   12.1870   63.7504 H         1             0.1656
     32 H11        18.8004   13.9504   63.7884 H         1             0.1691
     33 H12        19.7775   16.2070   63.6621 H         1             0.1508
     34 H13        21.4953   19.7239   59.7492 H         1             0.1154
     35 H14        21.1687   20.4706   61.3391 H         1             0.1196
     36 H15        23.5888   20.7758   59.5468 H         1             0.1708
     37 H16        24.4126   22.7599   59.4385 H         1             0.1745
     38 H17        24.0746   23.9193   62.3000 H         1             0.1078
     39 H18        25.6206   23.4697   61.4537 H         1             0.1289
     40 H19        23.3396   24.8745   58.8136 H         1             0.1306
     41 H20        22.4139   24.9420   60.3782 H         1             0.1083
@<TRIPOS>BOND
     1    1    2 1 
     2    1   24 1 
     3    2   16 1 
     4    2    3 1 
     5    2   25 1 
     6    3    4 1 
     7    3   14 1 
     8    3   26 1 
     9    4    5 1 
    10    4   27 1 
    11    4   28 1 
    12    5    6 am
    13    5   29 1 
    14    6    7 2 
    15    6    8 1 
    16    8   13 ar
    17    8    9 ar
    18    9   10 ar
    19    9   30 1 
    20   10   11 ar
    21   10   31 1 
    22   11   12 ar
    23   12   13 ar
    24   12   32 1 
    25   13   33 1 
    26   14   15 1 
    27   15   16 1 
    28   15   34 1 
    29   15   35 1 
    30   16   17 1 
    31   16   36 1 
    32   17   18 1 
    33   17   19 1 
    34   17   20 1 
    35   20   23 1 
    36   20   21 1 
    37   20   37 1 
    38   21   22 1 
    39   21   38 1 
    40   21   39 1 
    41   22   23 1 
    42   23   40 1 
    43   23   41 1 
##########                 Name:            E25611282
##########          Protonation:                   44
##########               SMILES:   Cc1ccc(cc1)Nc2nc(nc(n2)N)c3ccc(cc3)F
##########            Long Name:   6-(4-fluorophenyl)-N4-(p-tolyl)-1,3,5-triazine-2,4-diamine
##########          FlexRecCode: 1
##########               Number:                  319
##########   Ligand Source File: /raidb/db2/rgc/leads-emolecules-300/leads-emolecules-2g-0000276.db2.gz
##########           GlobalRank: 3119
##########                 Rank:                    1
##########               Setnum:                   29
##########             Matchnum:                  899
##########                Cloud:                    1
##########        Electrostatic:            -6.830265
##########        Van der Waals:           -31.398821
##########  Ligand Polar Desolv:             3.448071
########## Ligand Apolar Desolv:            -5.885979
##########      Internal Energy:             0.000000
##########      Receptor Energy: 0.0
########## Receptor Desolvation:             0.000000
########## Receptor Hydrophobic:             0.000000
##########         Total Energy: -40.67
##########        Ligand Charge:             0.000000
##########            Arbitrary:    +999.9990
##########     heavy atom count:   22
##########           pose count:    1
##########        Ligand Energy:             0.000000
# num electro vdwattr vdwrepu polsolv apolsol rdesolv rhydroe totalscore fullpol fullapo
#   1    1.54   -1.18    0.38   -0.08   -0.07    0.00    0.00       0.59   -0.21   -0.20
#   2    1.22   -1.23    0.26    0.02   -0.14    0.00    0.00       0.13    0.05   -0.41
#   3    0.69   -0.98    0.12    0.05   -0.14    0.00    0.00      -0.27    0.16   -0.45
#   4    0.35   -1.20    0.13    0.15   -0.16    0.00    0.00      -0.73    0.39   -0.40
#   5   -0.41   -1.36    0.19   -0.14   -0.29    0.00    0.00      -2.01   -0.32   -0.67
#   6   -4.57   -3.55    3.87    0.71    0.50    0.00    0.00      -3.05    1.52    1.06
#   7    6.82   -2.62    1.60   -1.37   -2.25    0.00    0.00       2.19   -2.84   -4.66
#   8  -10.97   -2.95    1.72    1.65    1.03    0.00    0.00      -9.52    3.02    1.89
#   9    5.40   -1.93    0.32   -1.23   -1.26    0.00    0.00       1.29   -2.06   -2.12
#  10   -3.84   -2.23    0.58    1.55    1.12    0.00    0.00      -2.82    2.60    1.88
#  11    3.32   -1.94    0.46   -1.23   -2.98    0.00    0.00      -2.38   -2.06   -4.98
#  12   -3.45   -2.86    0.92   -0.47    0.61    0.00    0.00      -5.24   -0.74    0.95
#  13   -3.50   -1.75    0.41    1.48    0.73    0.00    0.00      -2.64    2.95    1.46
#  14   -0.81   -2.37    0.66    0.15   -0.26    0.00    0.00      -2.62    0.24   -0.41
#  15   -0.18   -3.01    0.80    0.03   -0.30    0.00    0.00      -2.66    0.05   -0.46
#  16   -0.91   -3.41    1.06    0.05   -0.30    0.00    0.00      -3.52    0.07   -0.47
#  17    1.25   -2.62    1.04   -0.08   -0.22    0.00    0.00      -0.63   -0.13   -0.34
#  18   -1.20   -1.35    0.29    0.24   -0.32    0.00    0.00      -2.33    0.36   -0.48
#  19   -2.02   -2.86    1.96    0.02   -0.28    0.00    0.00      -3.17    0.04   -0.47
#  20   -0.43   -2.85    1.26    0.02   -0.27    0.00    0.00      -2.27    0.03   -0.46
#  21    1.47   -1.29    0.15    0.04   -0.21    0.00    0.00       0.17    0.09   -0.46
#  22    1.66   -1.40    0.23    0.00   -0.19    0.00    0.00       0.31    0.01   -0.45
#  23   -0.51   -0.19    0.02    0.04   -0.06    0.00    0.00      -0.71    0.18   -0.28
#  24   -1.10   -1.00    1.32    0.07   -0.12    0.00    0.00      -0.83    0.17   -0.28
#  25   -1.15   -0.35    0.13    0.05   -0.07    0.00    0.00      -1.38    0.22   -0.28
#  26   -0.69   -0.15    0.01    0.01   -0.04    0.00    0.00      -0.87    0.04   -0.28
#  27   -0.02   -0.32    0.05   -0.15   -0.07    0.00    0.00      -0.50   -0.50   -0.22
#  28    3.24   -0.13    0.03   -0.06    0.29    0.00    0.00       3.37   -0.13    0.61
#  29    1.25   -0.07    0.00    0.81    0.36    0.00    0.00       2.36    1.36    0.60
#  30    1.73   -0.04    0.00    0.60    0.32    0.00    0.00       2.61    1.12    0.60
#  31    0.34   -0.70    0.15   -0.06   -0.17    0.00    0.00      -0.45   -0.10   -0.27
#  32   -0.01   -1.13    0.92    0.20   -0.18    0.00    0.00      -0.21    0.31   -0.28
#  33    1.41   -0.54    0.15    0.17   -0.14    0.00    0.00       1.06    0.35   -0.28
#  34    1.95   -0.61    0.15   -0.02   -0.15    0.00    0.00       1.33   -0.03   -0.27
#  35   -1.54   -0.32    0.08    0.08   -0.10    0.00    0.00      -1.80    0.24   -0.28
#  36   -3.18   -0.41    0.08    0.14   -0.11    0.00    0.00      -3.47    0.37   -0.28
@<TRIPOS>MOLECULE
E25611282
   36    38     0     0     0
SMALL
USER_CHARGES


@<TRIPOS>ATOM
      1 C1         24.9480   17.4511   59.6677 C.3       1            -0.1142
      2 C2         23.8567   17.4662   60.7067 C.ar      1            -0.1004
      3 C3         24.0208   16.7702   61.8900 C.ar      1            -0.1021
      4 C4         23.0225   16.7818   62.8442 C.ar      1            -0.1069
      5 C5         21.8527   17.4944   62.6145 C.ar      1             0.1520
      6 N1         20.8401   17.5086   63.5787 N.pl3     1            -0.6249
      7 C6         20.2456   16.3255   63.9735 C.ar      1             0.6314
      8 N2         18.9774   16.3198   64.3727 N.ar      1            -0.6257
      9 C7         18.4053   15.1809   64.7527 C.ar      1             0.4777
     10 N3         19.1023   14.0480   64.7332 N.ar      1            -0.6276
     11 C8         20.3702   14.0548   64.3339 C.ar      1             0.6326
     12 N4         21.0935   12.8795   64.3132 N.pl3     1            -0.8030
     13 N5         20.9400   15.1925   63.9490 N.ar      1            -0.6412
     14 C9         16.9917   15.1740   65.1984 C.ar      1            -0.0686
     15 C10        16.6670   14.7542   66.4879 C.ar      1            -0.0308
     16 C11        15.3504   14.7500   66.8983 C.ar      1            -0.1668
     17 C12        14.3506   15.1622   66.0314 C.ar      1             0.1277
     18 F1         13.0623   15.1568   66.4379 F         1            -0.1337
     19 C13        14.6687   15.5803   64.7489 C.ar      1            -0.1670
     20 C14        15.9832   15.5929   64.3314 C.ar      1            -0.0305
     21 C15        21.6910   18.1933   61.4252 C.ar      1            -0.1400
     22 C16        22.6955   18.1818   60.4773 C.ar      1            -0.1001
     23 H1         25.7783   16.8407   60.0217 H         1             0.0697
     24 H2         24.5595   17.0335   58.7389 H         1             0.0659
     25 H3         25.2954   18.4694   59.4906 H         1             0.0659
     26 H4         24.9307   16.2162   62.0680 H         1             0.1242
     27 H5         23.1512   16.2369   63.7678 H         1             0.1337
     28 H6         20.5550   18.3489   63.9704 H         1             0.4269
     29 H7         20.6765   12.0485   64.5900 H         1             0.4197
     30 H8         22.0186   12.8843   64.0219 H         1             0.4186
     31 H9         17.4454   14.4325   67.1639 H         1             0.1490
     32 H10        15.0979   14.4246   67.8968 H         1             0.1436
     33 H11        13.8864   15.9006   64.0766 H         1             0.1436
     34 H12        16.2304   15.9227   63.3332 H         1             0.1490
     35 H13        20.7825   18.7481   61.2434 H         1             0.1257
     36 H14        22.5722   18.7288   59.5542 H         1             0.1264
@<TRIPOS>BOND
     1    1    2 1 
     2    1   23 1 
     3    1   24 1 
     4    1   25 1 
     5    2   22 ar
     6    2    3 ar
     7    3    4 ar
     8    3   26 1 
     9    4    5 ar
    10    4   27 1 
    11    5    6 1 
    12    5   21 ar
    13    6    7 1 
    14    6   28 1 
    15    7   13 ar
    16    7    8 ar
    17    8    9 ar
    18    9   10 ar
    19    9   14 1 
    20   10   11 ar
    21   11   12 1 
    22   11   13 ar
    23   12   29 1 
    24   12   30 1 
    25   14   20 ar
    26   14   15 ar
    27   15   16 ar
    28   15   31 1 
    29   16   17 ar
    30   16   32 1 
    31   17   18 1 
    32   17   19 ar
    33   19   20 ar
    34   19   33 1 
    35   20   34 1 
    36   21   22 ar
    37   21   35 1 
    38   22   36 1 
##########                 Name:            E30014753
##########          Protonation:                   33
##########               SMILES:   c1cc(ccc1n2cncc2C(=O)/N=c/3\[nH][nH]cn3)F
##########            Long Name:   2-dihydro-1,2,4-triazol-3-ylidene)-3-(4-fluorophenyl)imidazole-4-carboxamide
##########          FlexRecCode: 1
##########               Number:                  998
##########   Ligand Source File: /raidb/db2/rgc/leads-emolecules-300/leads-emolecules-lt300-1f-0000151.db2.gz
##########           GlobalRank: 3119
##########                 Rank:                    1
##########               Setnum:                   24
##########             Matchnum:                 4905
##########                Cloud:                    1
##########        Electrostatic:           -14.800152
##########        Van der Waals:           -29.247734
##########  Ligand Polar Desolv:             8.262475
########## Ligand Apolar Desolv:            -4.880267
##########      Internal Energy:             0.000000
##########      Receptor Energy: 0.0
########## Receptor Desolvation:             0.000000
########## Receptor Hydrophobic:             0.000000
##########         Total Energy: -40.67
##########        Ligand Charge:             0.000000
##########            Arbitrary:    +999.9990
##########     heavy atom count:   20
##########           pose count:    1
##########        Ligand Energy:             0.000000
# num electro vdwattr vdwrepu polsolv apolsol rdesolv rhydroe totalscore fullpol fullapo
#   1   -2.12   -1.39    0.33    0.28   -0.31    0.00    0.00      -3.21    0.43   -0.48
#   2    1.62   -2.48    0.68   -0.12   -0.22    0.00    0.00      -0.52   -0.18   -0.34
#   3   -2.59   -2.81    0.90    0.01   -0.28    0.00    0.00      -4.77    0.02   -0.47
#   4   -1.12   -2.46    0.71    0.02   -0.26    0.00    0.00      -3.11    0.04   -0.45
#   5    0.86   -2.44    1.34   -0.15   -0.35    0.00    0.00      -0.75   -0.25   -0.59
#   6   -0.06   -3.49    2.39    0.04   -0.21    0.00    0.00      -1.32    0.06   -0.34
#   7   -0.91   -3.04    1.20    0.21   -0.30    0.00    0.00      -2.85    0.33   -0.47
#   8   -2.13   -1.93    0.36    1.08    0.51    0.00    0.00      -2.10    1.80    0.85
#   9    0.51   -3.15    1.22   -0.48   -2.02    0.00    0.00      -3.92   -0.74   -3.12
#  10   -1.73   -3.30    1.02    2.33    1.46    0.00    0.00      -0.22    3.56    2.24
#  11    0.14   -2.59    2.41   -0.16   -0.58    0.00    0.00      -0.79   -0.28   -1.00
#  12   -0.27   -1.65    0.40    0.37   -0.42    0.00    0.00      -1.57    0.65   -0.73
#  13    3.46   -1.84    0.53   -2.05   -0.30    0.00    0.00      -0.20   -4.48   -0.65
#  14   -8.64   -2.89    2.40    2.64    0.17    0.00    0.00      -6.33    5.50    0.35
#  15   -1.48   -2.13    0.72    1.82    0.91    0.00    0.00      -0.16    4.04    2.03
#  16   -1.03   -1.85    0.38   -0.79   -2.23    0.00    0.00      -5.51   -1.75   -4.96
#  17    2.64   -1.89    0.42   -0.08    0.33    0.00    0.00       1.42   -0.19    0.74
#  18    5.61   -2.36    0.79   -1.45    0.33    0.00    0.00       2.92   -3.40    0.78
#  19   -2.72   -2.64    1.04    1.37   -1.33    0.00    0.00      -4.27    3.44   -3.33
#  20    2.36   -2.86    1.15   -0.17    0.97    0.00    0.00       1.44   -0.40    2.25
#  21    2.47   -1.04    1.08    0.23   -0.16    0.00    0.00       2.59    0.41   -0.28
#  22    1.65   -0.60    0.27    0.17   -0.14    0.00    0.00       1.35    0.34   -0.28
#  23    0.01   -1.01    1.00   -0.35   -0.14    0.00    0.00      -0.49   -0.63   -0.25
#  24    0.16   -0.69    0.21   -0.10   -0.17    0.00    0.00      -0.59   -0.17   -0.28
#  25   -0.26   -1.34    2.10    0.40   -0.18    0.00    0.00       0.71    0.61   -0.28
#  26   -0.14   -0.53    0.47   -0.51   -0.11    0.00    0.00      -0.82   -1.27   -0.28
#  27   -1.46   -0.04    0.00   -0.23    0.10    0.00    0.00      -1.63   -0.68    0.30
#  28   -8.23   -0.06    0.00    2.11    0.14    0.00    0.00      -6.03    6.03    0.41
#  29   -1.39   -0.62    0.37    1.83   -0.09    0.00    0.00       0.10    5.71   -0.28
@<TRIPOS>MOLECULE
E30014753
   29    31     0     0     0
SMALL
USER_CHARGES


@<TRIPOS>ATOM
      1 F1         14.8599   16.2123   65.8404 F         1            -0.1364
      2 C1         15.9793   15.6521   65.3320 C.ar      1             0.1130
      3 C2         16.4868   16.0961   64.1236 C.ar      1            -0.1501
      4 C3         17.6312   15.5254   63.6022 C.ar      1            -0.0822
      5 C4         18.2725   14.5047   64.2908 C.ar      1             0.0980
      6 C5         17.7617   14.0596   65.5025 C.ar      1            -0.0105
      7 C6         16.6204   14.6366   66.0236 C.ar      1            -0.1370
      8 N1         19.4341   13.9237   63.7628 N.pl3     1            -0.3842
      9 C7         19.6029   12.6280   63.4309 C.2       1             0.2168
     10 N2         20.8162   12.4584   62.9715 N.2       1            -0.4936
     11 C8         21.4700   13.6210   62.9881 C.2       1             0.0622
     12 C9         20.6209   14.5719   63.4784 C.2       1            -0.0583
     13 C10        20.9129   16.0011   63.6692 C.2       1             0.5731
     14 O1         20.0164   16.8235   63.5833 O.2       1            -0.5793
     15 N3         22.1650   16.3997   63.9374 N.2       1            -0.6198
     16 C11        22.5796   17.5968   63.5415 C.2       1             0.6141
     17 N4         21.8349   18.5262   62.8574 N.pl3     1            -0.5110
     18 N5         22.6831   19.6285   62.6574 N.pl3     1            -0.4923
     19 C12        23.8707   19.3143   63.2194 C.2       1             0.3786
     20 N6         23.8008   18.1186   63.7432 N.2       1            -0.5204
     21 H1         15.9874   16.8901   63.5881 H         1             0.1420
     22 H2         18.0267   15.8729   62.6592 H         1             0.1365
     23 H3         18.2593   13.2656   66.0396 H         1             0.1342
     24 H4         16.2252   14.2936   66.9685 H         1             0.1412
     25 H5         18.8562   11.8539   63.5289 H         1             0.2149
     26 H6         22.4884   13.7826   62.6669 H         1             0.1837
     27 H7         20.9123   18.4393   62.5709 H         1             0.4615
     28 H8         22.4589   20.4557   62.2031 H         1             0.4552
     29 H9         24.7412   19.9534   63.2373 H         1             0.2500
@<TRIPOS>BOND
     1    1    2 1 
     2    2    7 ar
     3    2    3 ar
     4    3    4 ar
     5    3   21 1 
     6    4    5 ar
     7    4   22 1 
     8    5    6 ar
     9    5    8 1 
    10    6    7 ar
    11    6   23 1 
    12    7   24 1 
    13    8   12 1 
    14    8    9 1 
    15    9   10 2 
    16    9   25 1 
    17   10   11 1 
    18   11   12 2 
    19   11   26 1 
    20   12   13 1 
    21   13   14 2 
    22   13   15 1 
    23   15   16 2 
    24   16   20 1 
    25   16   17 1 
    26   17   18 1 
    27   17   27 1 
    28   18   19 1 
    29   18   28 1 
    30   19   20 2 
    31   19   29 1 
##########                 Name:             E8220171
##########          Protonation:                  100
##########               SMILES:   c1ccc(cc1)c2c[nH]cc2C(=O)c3cccc4c3cccc4
##########            Long Name:   1-naphthyl-(4-phenyl-1H-pyrrol-3-yl)methanone
##########          FlexRecCode: 1
##########               Number:                   66
##########   Ligand Source File: /raidb/db2/rgc/leads-emolecules-300/leads-emolecules-lt300-2i-0000021.db2.gz
##########           GlobalRank: 3119
##########                 Rank:                    1
##########               Setnum:                   75
##########             Matchnum:                 3682
##########                Cloud:                    1
##########        Electrostatic:            -8.157182
##########        Van der Waals:           -33.057434
##########  Ligand Polar Desolv:             6.954150
########## Ligand Apolar Desolv:            -6.412938
##########      Internal Energy:             0.000000
##########      Receptor Energy: 0.0
########## Receptor Desolvation:             0.000000
########## Receptor Hydrophobic:             0.000000
##########         Total Energy: -40.67
##########        Ligand Charge:             0.000000
##########            Arbitrary:    +999.9990
##########     heavy atom count:   23
##########           pose count:    1
##########        Ligand Energy:             0.000000
# num electro vdwattr vdwrepu polsolv apolsol rdesolv rhydroe totalscore fullpol fullapo
#   1   -7.87   -2.47    1.03    3.43    0.21    0.00    0.00      -5.66    6.03    0.37
#   2    5.97   -1.91    0.32   -2.07   -0.15    0.00    0.00       2.16   -3.51   -0.25
#   3   -1.79   -1.70    0.24    0.76   -0.25    0.00    0.00      -2.73    1.32   -0.43
#   4    0.28   -2.67    1.17    0.01   -0.60    0.00    0.00      -1.80    0.02   -0.98
#   5   -2.24   -2.71    0.83   -0.99    0.74    0.00    0.00      -4.38   -1.56    1.16
#   6   -0.01   -1.86    0.39    0.01   -0.57    0.00    0.00      -2.05    0.01   -0.99
#   7   -0.39   -1.61    0.34    0.31   -0.21    0.00    0.00      -1.56    0.59   -0.40
#   8   -0.05   -1.62    0.38    0.08   -0.16    0.00    0.00      -1.38    0.18   -0.37
#   9   -0.06   -1.98    0.61    0.40   -0.17    0.00    0.00      -1.20    0.88   -0.37
#  10    0.60   -1.74    0.28    0.40   -0.21    0.00    0.00      -0.67    0.90   -0.47
#  11    1.26   -1.58    0.30    0.27   -0.22    0.00    0.00       0.04    0.58   -0.47
#  12    0.99   -1.91    0.84    0.21   -0.23    0.00    0.00      -0.10    0.43   -0.47
#  13   -0.11   -2.16    1.01    0.23   -0.21    0.00    0.00      -1.23    0.51   -0.45
#  14   -1.47   -2.27    0.53    0.54   -0.23    0.00    0.00      -2.91    0.84   -0.36
#  15   -0.33   -2.77    1.45    0.11   -0.26    0.00    0.00      -1.79    0.18   -0.41
#  16   -1.35   -3.41    1.63    0.28   -0.26    0.00    0.00      -3.11    0.47   -0.44
#  17   -0.93   -4.24    3.32    0.05   -0.28    0.00    0.00      -2.07    0.08   -0.47
#  18   -1.15   -2.41    0.75   -0.08   -0.30    0.00    0.00      -3.19   -0.12   -0.47
#  19   -1.00   -2.34    0.65   -0.06   -0.30    0.00    0.00      -3.05   -0.09   -0.46
#  20   -0.50   -2.77    1.07    0.08   -0.25    0.00    0.00      -2.38    0.13   -0.40
#  21   -0.25   -4.26    1.78   -0.03   -0.30    0.00    0.00      -3.05   -0.04   -0.45
#  22   -0.02   -4.92    2.16    0.03   -0.32    0.00    0.00      -3.07    0.04   -0.47
#  23   -0.42   -3.08    0.74    0.17   -0.29    0.00    0.00      -2.87    0.27   -0.45
#  24    0.10   -0.84    0.49    0.25   -0.15    0.00    0.00      -0.14    0.47   -0.28
#  25    2.43   -0.07    0.00    1.97    0.35    0.00    0.00       4.69    3.32    0.59
#  26    0.09   -0.34    0.05    0.35   -0.11    0.00    0.00       0.05    0.89   -0.28
#  27    0.27   -0.63    0.31   -0.37   -0.11    0.00    0.00      -0.52   -0.88   -0.27
#  28   -0.68   -0.47    0.08   -0.25   -0.11    0.00    0.00      -1.43   -0.62   -0.28
#  29   -2.03   -0.32    0.05   -0.07   -0.09    0.00    0.00      -2.45   -0.21   -0.28
#  30   -1.65   -0.37    0.06   -0.01   -0.12    0.00    0.00      -2.10   -0.03   -0.28
#  31    0.22   -0.62    0.35   -0.09   -0.13    0.00    0.00      -0.26   -0.19   -0.28
#  32    1.43   -0.77    0.30   -0.31   -0.14    0.00    0.00       0.52   -0.53   -0.24
#  33    0.32   -2.45    7.81    0.12   -0.17    0.00    0.00       5.63    0.20   -0.28
#  34    1.06   -0.50    0.17    0.30   -0.13    0.00    0.00       0.89    0.62   -0.28
#  35    1.13   -0.59    0.24    0.36   -0.15    0.00    0.00       0.99    0.68   -0.28
#  36   -0.09   -1.67    3.18    0.44   -0.18    0.00    0.00       1.69    0.68   -0.28
#  37   -0.65   -1.99    2.21    0.32   -0.20    0.00    0.00      -0.31    0.45   -0.28
#  38    0.73   -0.84    0.63   -0.22   -0.16    0.00    0.00       0.15   -0.38   -0.28
@<TRIPOS>MOLECULE
E8220171
   38    41     0     0     0
SMALL
USER_CHARGES


@<TRIPOS>ATOM
      1 O1         18.0435   16.2529   63.3895 O.2       1            -0.4369
      2 C1         18.2647   15.3786   64.2066 C.2       1             0.4699
      3 C2         19.5050   14.5924   64.1251 C.2       1            -0.2439
      4 C3         19.6838   13.2941   64.5170 C.2       1             0.0742
      5 N1         20.9619   12.9435   64.2765 N.pl3     1            -0.5433
      6 C4         21.6486   13.9849   63.7285 C.2       1            -0.0039
      7 C5         20.8067   15.0415   63.5985 C.2       1            -0.0786
      8 C6         21.1312   16.3777   63.0435 C.ar      1            -0.0144
      9 C7         22.1269   17.1564   63.6313 C.ar      1            -0.0779
     10 C8         22.4249   18.3990   63.1101 C.ar      1            -0.1210
     11 C9         21.7369   18.8725   62.0071 C.ar      1            -0.1201
     12 C10        20.7482   18.1041   61.4199 C.ar      1            -0.1241
     13 C11        20.4458   16.8574   61.9286 C.ar      1            -0.1105
     14 C12        17.2919   15.1114   65.2819 C.ar      1            -0.1315
     15 C13        15.8641   15.3420   65.0707 C.ar      1            -0.0259
     16 C14        15.3730   15.8206   63.8502 C.ar      1            -0.1090
     17 C15        14.0336   16.0215   63.6953 C.ar      1            -0.1077
     18 C16        13.1454   15.7570   64.7351 C.ar      1            -0.1164
     19 C17        13.5892   15.2907   65.9349 C.ar      1            -0.1019
     20 C18        14.9638   15.0719   66.1301 C.ar      1            -0.0538
     21 C19        15.4607   14.5910   67.3534 C.ar      1            -0.0913
     22 C20        16.7947   14.3840   67.5276 C.ar      1            -0.1182
     23 C21        17.7124   14.6298   66.5152 C.ar      1            -0.0755
     24 H1         18.9263   12.6564   64.9481 H         1             0.1751
     25 H2         21.3407   12.0711   64.4673 H         1             0.4220
     26 H3         22.6895   13.9704   63.4407 H         1             0.1745
     27 H4         22.6637   16.7881   64.4930 H         1             0.1161
     28 H5         23.1962   19.0032   63.5647 H         1             0.1206
     29 H6         21.9733   19.8456   61.6029 H         1             0.1197
     30 H7         20.2145   18.4788   60.5590 H         1             0.1210
     31 H8         19.6763   16.2566   61.4666 H         1             0.1193
     32 H9         16.0514   16.0299   63.0364 H         1             0.1255
     33 H10        13.6560   16.3911   62.7533 H         1             0.1253
     34 H11        12.0888   15.9247   64.5875 H         1             0.1255
     35 H12        12.8889   15.0904   66.7323 H         1             0.1300
     36 H13        14.7773   14.3838   68.1635 H         1             0.1297
     37 H14        17.1487   14.0141   68.4785 H         1             0.1288
     38 H15        18.7628   14.4488   66.6892 H         1             0.1286
@<TRIPOS>BOND
     1    1    2 2 
     2    2    3 1 
     3    2   14 1 
     4    3    7 1 
     5    3    4 2 
     6    4    5 1 
     7    4   24 1 
     8    5    6 1 
     9    5   25 1 
    10    6    7 2 
    11    6   26 1 
    12    7    8 1 
    13    8   13 ar
    14    8    9 ar
    15    9   10 ar
    16    9   27 1 
    17   10   11 ar
    18   10   28 1 
    19   11   12 ar
    20   11   29 1 
    21   12   13 ar
    22   12   30 1 
    23   13   31 1 
    24   14   23 ar
    25   14   15 ar
    26   15   20 ar
    27   15   16 ar
    28   16   17 ar
    29   16   32 1 
    30   17   18 ar
    31   17   33 1 
    32   18   19 ar
    33   18   34 1 
    34   19   20 ar
    35   19   35 1 
    36   20   21 ar
    37   21   22 ar
    38   21   36 1 
    39   22   23 ar
    40   22   37 1 
    41   23   38 1 
##########                 Name:             E8596504
##########          Protonation:                   23
##########               SMILES:   C[NH+]1CCN(CC1)NC2=CC(=O)C[C@@H](C2)c3ccccc3
##########            Long Name:   (5R)-3-[(4-methylpiperazin-4-ium-1-yl)amino]-5-phenyl-cyclohex-2-en-1-one
##########          FlexRecCode: 1
##########               Number:                   28
##########   Ligand Source File: /raidb/db2/rgc/leads-emolecules-300/leads-emolecules-2b-0000027.db2.gz
##########           GlobalRank: 3133
##########                 Rank:                    1
##########               Setnum:                    2
##########             Matchnum:                 1394
##########                Cloud:                    1
##########        Electrostatic:           -17.859922
##########        Van der Waals:           -28.397251
##########  Ligand Polar Desolv:            10.355231
########## Ligand Apolar Desolv:            -4.753852
##########      Internal Energy:             0.000000
##########      Receptor Energy: 0.0
########## Receptor Desolvation:             0.000000
########## Receptor Hydrophobic:             0.000000
##########         Total Energy: -40.66
##########        Ligand Charge:             1.000000
##########            Arbitrary:    +999.9990
##########     heavy atom count:   21
##########           pose count:    1
##########        Ligand Energy:             0.000000
# num electro vdwattr vdwrepu polsolv apolsol rdesolv rhydroe totalscore fullpol fullapo
#   1    0.95   -0.95    0.14   -0.58   -0.20    0.00    0.00      -0.64   -1.40   -0.48
#   2    5.12   -0.76    0.04   -4.59    0.16    0.00    0.00      -0.04  -11.83    0.41
#   3   -5.74   -0.01    0.00    2.27    0.08    0.00    0.00      -3.41   16.62    0.56
#   4   -0.01   -0.87    0.19    0.27   -0.16    0.00    0.00      -0.58    0.67   -0.39
#   5   -0.03   -1.14    0.39    0.03   -0.20    0.00    0.00      -0.95    0.07   -0.44
#   6   -0.65   -3.08    3.07   -3.83    0.70    0.00    0.00      -3.79   -8.20    1.49
#   7   -0.03   -2.34    1.16    0.02   -0.22    0.00    0.00      -1.40    0.05   -0.44
#   8    0.00   -1.14    0.17    0.27   -0.16    0.00    0.00      -0.86    0.66   -0.39
#   9   -2.18   -2.34    1.06   -5.07    0.21    0.00    0.00      -8.32  -11.04    0.46
#  10    1.83   -2.18    1.07    2.75   -0.35    0.00    0.00       3.13    5.82   -0.73
#  11   -1.48   -1.79    0.39   -2.53   -0.24    0.00    0.00      -5.66   -4.47   -0.43
#  12    1.67   -2.20    0.61    1.05   -0.19    0.00    0.00       0.94    1.70   -0.31
#  13   -1.81   -3.22    0.97    0.69    0.29    0.00    0.00      -3.09    1.04    0.44
#  14   -0.83   -1.83    0.92   -0.69   -0.14    0.00    0.00      -2.57   -1.16   -0.23
#  15   -0.28   -1.44    0.33   -0.06   -0.09    0.00    0.00      -1.53   -0.10   -0.15
#  16   -1.35   -1.68    0.77   -0.80   -0.11    0.00    0.00      -3.17   -1.50   -0.21
#  17   -1.02   -2.24    0.41   -0.46   -0.21    0.00    0.00      -3.52   -0.71   -0.33
#  18   -1.88   -2.54    0.70   -0.65   -0.24    0.00    0.00      -4.60   -1.08   -0.40
#  19   -1.75   -2.80    0.93   -0.64   -0.29    0.00    0.00      -4.54   -1.05   -0.47
#  20   -1.42   -2.37    0.56   -0.63   -0.31    0.00    0.00      -4.17   -0.96   -0.47
#  21   -0.87   -3.19    1.00   -0.63   -0.31    0.00    0.00      -4.00   -0.97   -0.47
#  22   -0.68   -3.07    0.78   -0.70   -0.30    0.00    0.00      -3.97   -1.06   -0.46
#  23   -2.40   -0.39    0.09    1.60   -0.10    0.00    0.00      -1.20    4.60   -0.28
#  24   -2.57   -0.32    0.10    1.26   -0.08    0.00    0.00      -1.61    4.63   -0.28
#  25   -3.40   -0.40    0.11    1.16   -0.10    0.00    0.00      -2.63    3.31   -0.28
#  26   -2.26   -0.44    0.20    1.25   -0.10    0.00    0.00      -1.36    3.41   -0.28
#  27   -0.97   -0.28    0.11    1.33   -0.06    0.00    0.00       0.13    6.14   -0.28
#  28   -1.48   -0.40    0.20    0.65   -0.10    0.00    0.00      -1.12    1.85   -0.28
#  29   -0.09   -0.39    0.12    1.24   -0.11    0.00    0.00       0.76    3.18   -0.28
#  30   -1.36   -1.27    1.47    0.86   -0.13    0.00    0.00      -0.43    1.80   -0.28
#  31   -0.13   -1.48    2.47    1.79   -0.16    0.00    0.00       2.50    3.15   -0.28
#  32   -0.76   -0.34    0.06    1.89   -0.09    0.00    0.00       0.76    6.09   -0.28
#  33   -1.03   -0.53    0.18    1.14   -0.09    0.00    0.00      -0.34    3.39   -0.28
#  34    0.59   -0.03    0.00    3.61    0.15    0.00    0.00       4.31    9.93    0.40
#  35    0.30   -0.32    0.05    0.47   -0.09    0.00    0.00       0.41    1.22   -0.24
#  36    0.64   -0.92    1.85    0.43   -0.12    0.00    0.00       1.88    0.92   -0.25
#  37    0.10   -0.94    0.72    0.02   -0.15    0.00    0.00      -0.25    0.04   -0.28
#  38    0.75   -0.81    0.87    0.54   -0.14    0.00    0.00       1.22    1.06   -0.27
#  39    1.82   -1.32    3.12    1.27   -0.14    0.00    0.00       4.75    2.62   -0.28
#  40    1.68   -0.41    0.13    0.90   -0.11    0.00    0.00       2.19    2.15   -0.25
#  41    2.08   -0.51    0.10    0.97   -0.12    0.00    0.00       2.52    1.87   -0.24
#  42    1.21   -0.91    0.99    0.62   -0.15    0.00    0.00       1.76    1.14   -0.28
#  43    1.39   -0.38    0.04    0.42   -0.15    0.00    0.00       1.32    0.79   -0.28
#  44    0.41   -0.95    0.52    0.56   -0.17    0.00    0.00       0.36    0.92   -0.28
#  45    0.07   -0.80    0.20    0.88   -0.18    0.00    0.00       0.17    1.39   -0.28
@<TRIPOS>MOLECULE
E8596504
   45    47     0     0     0
SMALL
USER_CHARGES


@<TRIPOS>ATOM
      1 C1         22.6514   19.9983   60.9603 C.3       1            -0.0465
      2 N1         23.2500   18.7722   61.5046 N.4       1            -0.3900
      3 H1         24.1627   18.6344   61.0970 H         1             0.4232
      4 C2         22.3921   17.6243   61.1823 C.3       1             0.0006
      5 C3         21.0034   17.8391   61.7878 C.3       1             0.0067
      6 N2         21.1267   17.9850   63.2448 N.3       1            -0.2985
      7 C4         21.9973   19.1204   63.5802 C.3       1             0.0053
      8 C5         23.3791   18.8965   62.9625 C.3       1             0.0005
      9 N3         21.5850   16.8315   63.8151 N.pl3     1            -0.5699
     10 C6         20.7277   15.7975   64.0445 C.2       1             0.2553
     11 C7         21.1939   14.5303   64.0145 C.2       1            -0.3363
     12 C8         20.3577   13.4344   64.2485 C.2       1             0.3974
     13 O1         20.8152   12.3090   64.2110 O.2       1            -0.4827
     14 C9         18.8947   13.6359   64.5473 C.3       1            -0.1669
     15 C10        18.7057   14.9930   65.2325 C.3       1            -0.0288
     16 C11        19.2792   16.0883   64.3330 C.3       1            -0.0919
     17 C12        17.2373   15.2433   65.4609 C.ar      1            -0.0881
     18 C13        16.4864   15.8831   64.4925 C.ar      1            -0.1150
     19 C14        15.1394   16.1127   64.7020 C.ar      1            -0.1159
     20 C15        14.5433   15.7020   65.8796 C.ar      1            -0.1158
     21 C16        15.2940   15.0614   66.8475 C.ar      1            -0.1156
     22 C17        16.6399   14.8281   66.6363 C.ar      1            -0.1117
     23 H2         21.6653   20.1475   61.4002 H         1             0.1263
     24 H3         23.2882   20.8503   61.1984 H         1             0.1263
     25 H4         22.5562   19.9069   59.8783 H         1             0.1256
     26 H5         22.3057   17.5278   60.1000 H         1             0.1433
     27 H6         22.8313   16.7157   61.5941 H         1             0.1435
     28 H7         20.5590   18.7416   61.3679 H         1             0.1322
     29 H8         20.3703   16.9815   61.5600 H         1             0.0689
     30 H9         21.5659   20.0395   63.1838 H         1             0.1317
     31 H10        22.0913   19.1995   64.6632 H         1             0.0687
     32 H11        23.8147   17.9832   63.3679 H         1             0.1432
     33 H12        24.0240   19.7427   63.1993 H         1             0.1433
     34 H13        22.5207   16.7484   64.0568 H         1             0.3973
     35 H14        22.2392   14.3591   63.8040 H         1             0.1348
     36 H15        18.3264   13.6150   63.6173 H         1             0.1007
     37 H16        18.5447   12.8425   65.2076 H         1             0.0981
     38 H17        19.2315   14.9963   66.1873 H         1             0.0895
     39 H18        19.1949   17.0524   64.8344 H         1             0.0904
     40 H19        18.7206   16.1152   63.3974 H         1             0.1029
     41 H20        16.9522   16.2039   63.5724 H         1             0.1211
     42 H21        14.5529   16.6132   63.9457 H         1             0.1245
     43 H22        13.4911   15.8820   66.0435 H         1             0.1245
     44 H23        14.8282   14.7409   67.7678 H         1             0.1250
     45 H24        17.2257   14.3242   67.3910 H         1             0.1225
@<TRIPOS>BOND
     1    1    2 1 
     2    1   23 1 
     3    1   24 1 
     4    1   25 1 
     5    2    3 1 
     6    2    8 1 
     7    2    4 1 
     8    4    5 1 
     9    4   26 1 
    10    4   27 1 
    11    5    6 1 
    12    5   28 1 
    13    5   29 1 
    14    6    7 1 
    15    6    9 1 
    16    7    8 1 
    17    7   30 1 
    18    7   31 1 
    19    8   32 1 
    20    8   33 1 
    21    9   10 1 
    22    9   34 1 
    23   10   16 1 
    24   10   11 2 
    25   11   12 1 
    26   11   35 1 
    27   12   13 2 
    28   12   14 1 
    29   14   15 1 
    30   14   36 1 
    31   14   37 1 
    32   15   16 1 
    33   15   17 1 
    34   15   38 1 
    35   16   39 1 
    36   16   40 1 
    37   17   22 ar
    38   17   18 ar
    39   18   19 ar
    40   18   41 1 
    41   19   20 ar
    42   19   42 1 
    43   20   21 ar
    44   20   43 1 
    45   21   22 ar
    46   21   44 1 
    47   22   45 1 
##########                 Name:            E26188542
##########          Protonation:                  100
##########               SMILES:   c1cc(ccc1NC(=O)/C(=C\2/CCCN2)/[N+](=O)[O-])Cl
##########            Long Name:   (2E)-N-(4-chlorophenyl)-2-nitro-2-pyrrolidin-2-ylidene-acetamide
##########          FlexRecCode: 1
##########               Number:                  628
##########   Ligand Source File: /raidb/db2/rgc/leads-emolecules-300/2-leads-lt300-emolecules-1-0000006.db2.gz
##########           GlobalRank: 3154
##########                 Rank:                    1
##########               Setnum:                   13
##########             Matchnum:                 1285
##########                Cloud:                    1
##########        Electrostatic:            -8.925108
##########        Van der Waals:           -32.080086
##########  Ligand Polar Desolv:             3.595015
########## Ligand Apolar Desolv:            -3.237644
##########      Internal Energy:             0.000000
##########      Receptor Energy: 0.0
########## Receptor Desolvation:             0.000000
########## Receptor Hydrophobic:             0.000000
##########         Total Energy: -40.65
##########        Ligand Charge:             0.000000
##########            Arbitrary:    +999.9990
##########     heavy atom count:   19
##########           pose count:    1
##########        Ligand Energy:             0.000000
# num electro vdwattr vdwrepu polsolv apolsol rdesolv rhydroe totalscore fullpol fullapo
#   1   -0.86   -5.86    2.74    0.12   -0.66    0.00    0.00      -4.52    0.18   -0.99
#   2   -0.63   -2.69    0.89    0.12   -0.19    0.00    0.00      -2.50    0.18   -0.30
#   3   -1.50   -2.81    1.03    0.10   -0.28    0.00    0.00      -3.47    0.16   -0.46
#   4   -1.90   -2.40    0.63    0.16   -0.28    0.00    0.00      -3.79    0.27   -0.46
#   5    1.34   -2.58    0.97   -0.31   -0.43    0.00    0.00      -1.01   -0.48   -0.68
#   6   -4.49   -2.37    0.70    1.49    0.92    0.00    0.00      -3.75    2.50    1.55
#   7    5.14   -1.68    0.24   -1.35   -0.34    0.00    0.00       2.01   -2.41   -0.61
#   8   -8.19   -1.86    0.47    1.45    0.15    0.00    0.00      -7.98    2.71    0.29
#   9   -1.35   -1.64    0.28    0.47   -0.40    0.00    0.00      -2.63    0.81   -0.69
#  10    0.93   -1.64    0.44    0.23   -0.33    0.00    0.00      -0.37    0.49   -0.71
#  11    0.14   -1.12    0.38   -0.25   -0.09    0.00    0.00      -0.93   -0.57   -0.21
#  12    0.50   -0.79    0.09   -0.38   -0.11    0.00    0.00      -0.69   -1.02   -0.30
#  13   -0.31   -0.78    0.07    0.22   -0.23    0.00    0.00      -1.04    0.54   -0.57
#  14   -1.92   -1.83    0.47   -0.99    0.75    0.00    0.00      -3.53   -2.21    1.67
#  15    0.29   -2.34    0.38   -0.25    0.27    0.00    0.00      -1.65   -0.39    0.42
#  16   -0.32   -3.00    0.71    0.43   -0.37    0.00    0.00      -2.56    0.64   -0.56
#  17   -1.09   -3.25    1.33    1.05   -0.36    0.00    0.00      -2.32    1.67   -0.57
#  18   -0.31   -3.64    1.83    0.31   -0.26    0.00    0.00      -2.07    0.47   -0.40
#  19   -0.53   -3.46    1.11    0.18   -0.30    0.00    0.00      -3.00    0.28   -0.46
#  20    2.33   -0.84    0.61    0.05   -0.15    0.00    0.00       1.99    0.09   -0.28
#  21    2.20   -0.46    0.08   -0.01   -0.14    0.00    0.00       1.66   -0.02   -0.28
#  22    1.32   -0.05    0.00   -0.69    0.21    0.00    0.00       0.79   -1.42    0.43
#  23   -0.04   -0.39    0.10    0.23   -0.10    0.00    0.00      -0.19    0.64   -0.27
#  24   -0.39   -0.78    1.97    0.19   -0.09    0.00    0.00       0.91    0.55   -0.26
#  25   -0.25   -0.43    0.16    0.29   -0.08    0.00    0.00      -0.31    1.03   -0.28
#  26   -0.58   -0.17    0.01    0.24   -0.05    0.00    0.00      -0.55    1.33   -0.28
#  27   -0.48   -0.28    0.02    0.44   -0.09    0.00    0.00      -0.39    1.34   -0.28
#  28   -0.64   -0.20    0.02    0.14   -0.05    0.00    0.00      -0.73    0.75   -0.28
#  29    3.20   -0.05    0.00    0.38    0.18    0.00    0.00       3.70    1.00    0.48
#  30   -0.59   -1.11    0.87   -0.36   -0.13    0.00    0.00      -1.32   -0.56   -0.21
#  31    0.06   -1.14    0.96   -0.11   -0.18    0.00    0.00      -0.40   -0.17   -0.28
@<TRIPOS>MOLECULE
E26188542
   31    32     0     0     0
SMALL
USER_CHARGES


@<TRIPOS>ATOM
      1 Cl1        13.4318   16.4154   66.6959 Cl        1            -0.0691
      2 C1         14.9559   15.7662   66.1767 C.ar      1            -0.0491
      3 C2         15.4897   16.1473   64.9576 C.ar      1            -0.0902
      4 C3         16.7016   15.6318   64.5420 C.ar      1            -0.1268
      5 C4         17.3850   14.7311   65.3486 C.ar      1             0.1492
      6 N1         18.6133   14.2078   64.9301 N.am      1            -0.6598
      7 C5         19.4209   14.9374   64.1353 C.2       1             0.5965
      8 O1         19.0815   16.0522   63.7812 O.2       1            -0.5375
      9 C6         20.6623   14.4086   63.7125 C.2       1            -0.2850
     10 C7         21.6998   15.2356   63.4682 C.2       1             0.3539
     11 C8         23.0730   14.7998   63.0069 C.3       1            -0.1168
     12 C9         23.8733   16.1070   62.8232 C.3       1            -0.1409
     13 C10        22.7640   17.1824   62.8065 C.3       1             0.0860
     14 N2         21.6698   16.5958   63.5937 N.pl3     1            -0.6596
     15 N3         20.8234   12.9475   63.5379 N.pl3     1             0.0805
     16 O2         19.8752   12.2686   63.2188 O.2       1            -0.1768
     17 O3         21.9031   12.4330   63.7147 O.3       1            -0.2003
     18 C11        16.8473   14.3511   66.5713 C.ar      1            -0.1105
     19 C12        15.6374   14.8737   66.9845 C.ar      1            -0.0930
     20 H1         14.9579   16.8477   64.3308 H         1             0.1396
     21 H2         17.1175   15.9287   63.5905 H         1             0.1404
     22 H3         18.8835   13.3200   65.2123 H         1             0.4215
     23 H4         23.5439   14.1714   63.7627 H         1             0.1258
     24 H5         23.0014   14.2643   62.0602 H         1             0.1209
     25 H6         24.5527   16.2654   63.6607 H         1             0.0907
     26 H7         24.4173   16.0980   61.8788 H         1             0.1026
     27 H8         23.1189   18.1025   63.2706 H         1             0.1008
     28 H9         22.4340   17.3728   61.7852 H         1             0.0891
     29 H10        21.0282   17.0969   64.1212 H         1             0.4352
     30 H11        17.3766   13.6508   67.2005 H         1             0.1460
     31 H12        15.2208   14.5818   67.9371 H         1             0.1367
@<TRIPOS>BOND
     1    1    2 1 
     2    2   19 ar
     3    2    3 ar
     4    3    4 ar
     5    3   20 1 
     6    4    5 ar
     7    4   21 1 
     8    5    6 1 
     9    5   18 ar
    10    6    7 am
    11    6   22 1 
    12    7    8 2 
    13    7    9 1 
    14    9   10 2 
    15    9   15 1 
    16   10   14 1 
    17   10   11 1 
    18   11   12 1 
    19   11   23 1 
    20   11   24 1 
    21   12   13 1 
    22   12   25 1 
    23   12   26 1 
    24   13   14 1 
    25   13   27 1 
    26   13   28 1 
    27   14   29 1 
    28   15   16 2 
    29   15   17 1 
    30   18   19 ar
    31   18   30 1 
    32   19   31 1 
##########                 Name:            E43496126
##########          Protonation:                   18
##########               SMILES:   CC1CCN(CC1)c2c/c(=N/C(=O)c3ccncc3)/[nH+]c[nH]2
##########            Long Name:   6-(4-methyl-1-piperidyl)-1H-pyrimidin-3-ium-4-ylidene]pyridine-4-carboxamide
##########          FlexRecCode: 1
##########               Number:                    6
##########   Ligand Source File: /raidb/db2/rgc/leads-emolecules-300/leads-emolecules-lt300-2i-0000064.db2.gz
##########           GlobalRank: 3154
##########                 Rank:                    1
##########               Setnum:                   41
##########             Matchnum:                 1120
##########                Cloud:                    1
##########        Electrostatic:           -30.760466
##########        Van der Waals:           -25.015026
##########  Ligand Polar Desolv:            17.607683
########## Ligand Apolar Desolv:            -2.485961
##########      Internal Energy:             0.000000
##########      Receptor Energy: 0.0
########## Receptor Desolvation:             0.000000
########## Receptor Hydrophobic:             0.000000
##########         Total Energy: -40.65
##########        Ligand Charge:             1.000000
##########            Arbitrary:    +999.9990
##########     heavy atom count:   22
##########           pose count:    1
##########        Ligand Energy:             0.000000
# num electro vdwattr vdwrepu polsolv apolsol rdesolv rhydroe totalscore fullpol fullapo
#   1   -0.34   -0.40    0.02   -0.50   -0.04    0.00    0.00      -1.26   -2.16   -0.18
#   2    0.27   -0.28    0.01   -0.29   -0.03    0.00    0.00      -0.33   -1.72   -0.17
#   3    0.59   -0.28    0.01   -0.49   -0.04    0.00    0.00      -0.21   -2.86   -0.22
#   4   -0.64   -0.62    0.10    0.65   -0.11    0.00    0.00      -0.62    2.70   -0.47
#   5    7.22   -1.05    0.12   -4.29    0.49    0.00    0.00       2.50  -14.41    1.66
#   6   -1.50   -1.01    0.46    0.78   -0.14    0.00    0.00      -1.42    2.53   -0.45
#   7    1.11   -0.45    0.03   -0.58   -0.05    0.00    0.00       0.05   -2.33   -0.22
#   8   -6.65   -1.04    0.09    5.09   -0.71    0.00    0.00      -3.22   13.70   -1.90
#   9    2.17   -1.28    0.12   -2.57   -0.16    0.00    0.00      -1.74   -6.57   -0.42
#  10   -2.90   -1.20    0.12    4.37   -0.87    0.00    0.00      -0.49   10.11   -2.01
#  11   -0.75   -1.67    0.34   -4.23    1.37    0.00    0.00      -4.93   -9.48    3.07
#  12    2.60   -1.70    0.47    2.64   -0.24    0.00    0.00       3.77    5.87   -0.53
#  13   -4.31   -2.12    0.84   -2.44    0.19    0.00    0.00      -7.84   -5.06    0.40
#  14   -0.40   -1.81    0.90   -0.61   -0.22    0.00    0.00      -2.14   -1.13   -0.41
#  15   -0.55   -1.81    0.29   -0.57   -0.28    0.00    0.00      -2.91   -0.94   -0.46
#  16    0.27   -2.94    0.75    0.30   -0.64    0.00    0.00      -2.26    0.46   -0.98
#  17   -2.95   -4.86    3.46   -1.80    1.32    0.00    0.00      -4.83   -2.77    2.04
#  18    0.17   -3.18    1.36    0.20   -0.55    0.00    0.00      -2.00    0.36   -0.98
#  19   -0.08   -1.97    0.94   -0.51   -0.23    0.00    0.00      -1.84   -1.04   -0.46
#  20    6.26   -1.53    0.28   -7.06    0.43    0.00    0.00      -1.61  -15.55    0.95
#  21   -3.82   -0.03    0.00    4.72    0.18    0.00    0.00       1.05   11.82    0.45
#  22  -10.67   -1.89    0.38    9.51   -1.51    0.00    0.00      -4.17   19.87   -3.16
#  23   13.16   -1.57    0.31   -7.35    0.40    0.00    0.00       4.95  -18.18    1.00
#  24    0.15   -0.10    0.00    0.07   -0.03    0.00    0.00       0.10    0.72   -0.28
#  25    0.17   -0.14    0.01    0.08   -0.04    0.00    0.00       0.07    0.50   -0.28
#  26    0.16   -0.22    0.04    0.04   -0.05    0.00    0.00      -0.03    0.23   -0.28
#  27   -0.11   -0.07    0.00    0.06   -0.02    0.00    0.00      -0.13    0.99   -0.28
#  28   -0.68   -0.10    0.01    0.16   -0.03    0.00    0.00      -0.64    1.59   -0.28
#  29   -0.07   -0.06    0.00    0.14   -0.02    0.00    0.00      -0.01    2.08   -0.28
#  30   -0.75   -0.19    0.05    0.30   -0.04    0.00    0.00      -0.64    2.01   -0.28
#  31   -0.15   -0.41    0.20    1.17   -0.05    0.00    0.00       0.77    4.89   -0.22
#  32   -2.08   -0.43    0.24    0.50   -0.08    0.00    0.00      -1.85    1.76   -0.28
#  33   -0.65   -0.62    0.72    0.59   -0.06    0.00    0.00      -0.02    2.34   -0.23
#  34   -0.42   -0.11    0.00    0.13   -0.03    0.00    0.00      -0.43    1.28   -0.28
#  35   -1.14   -0.25    0.09    0.17   -0.06    0.00    0.00      -1.19    0.85   -0.28
#  36   -1.20   -0.44    0.08    1.26   -0.09    0.00    0.00      -0.38    3.38   -0.25
#  37    0.99   -0.37    0.08    0.95   -0.11    0.00    0.00       1.55    2.36   -0.27
#  38   -0.41   -1.04    1.02    1.24   -0.18    0.00    0.00       0.63    1.98   -0.28
#  39   -0.59   -1.06    1.60    0.73   -0.13    0.00    0.00       0.56    1.52   -0.28
#  40   -0.23   -0.27    0.05    0.41   -0.08    0.00    0.00      -0.11    1.42   -0.27
#  41   -7.50   -0.86    0.88    8.32   -0.14    0.00    0.00       0.71   17.06   -0.28
#  42  -14.54   -0.05    0.00    6.31    0.17    0.00    0.00      -8.10   18.23    0.50
@<TRIPOS>MOLECULE
E43496126
   42    44     0     0     0
SMALL
USER_CHARGES


@<TRIPOS>ATOM
      1 C1         26.9892   22.7789   62.3016 C.3       1            -0.1525
      2 C2         26.8303   22.0995   60.9401 C.3       1            -0.0954
      3 C3         26.9730   20.5850   61.1067 C.3       1            -0.1376
      4 C4         25.9133   20.0850   62.0930 C.3       1             0.1040
      5 N1         24.5962   20.5197   61.6107 N.pl3     1            -0.5894
      6 C5         24.3723   21.9465   61.3439 C.3       1             0.1146
      7 C6         25.4496   22.4251   60.3661 C.3       1            -0.1357
      8 C7         23.5892   19.6062   61.4118 C.2       1             0.4309
      9 C8         23.1240   18.8338   62.4582 C.2       1            -0.2307
     10 C9         22.0929   17.9147   62.2043 C.2       1             0.4503
     11 N2         21.6122   17.1447   63.1962 N.2       1            -0.5630
     12 C10        20.7236   16.1925   62.9276 C.2       1             0.5295
     13 O1         19.6504   16.4837   62.4268 O.2       1            -0.4962
     14 C11        21.0378   14.7756   63.2371 C.ar      1            -0.1151
     15 C12        20.0242   13.8697   63.5607 C.ar      1            -0.1184
     16 C13        20.3609   12.5601   63.8421 C.ar      1             0.0964
     17 N3         21.6174   12.1622   63.8086 N.ar      1            -0.4545
     18 C14        22.6032   12.9844   63.5081 C.ar      1             0.1001
     19 C15        22.3548   14.3093   63.2074 C.ar      1            -0.1137
     20 N4         21.5898   17.8108   60.9605 N.pl3     1            -0.5523
     21 H1         20.8777   17.1756   60.7863 H         1             0.4606
     22 C16        22.0419   18.5492   59.9852 C.cat     1             0.5102
     23 N5         23.0262   19.4495   60.1765 N.pl3     1            -0.5664
     24 H2         27.9725   22.5472   62.7107 H         1             0.0566
     25 H3         26.8900   23.8579   62.1831 H         1             0.0619
     26 H4         26.2180   22.4156   62.9811 H         1             0.0632
     27 H5         27.6009   22.4637   60.2606 H         1             0.0809
     28 H6         26.8314   20.0974   60.1420 H         1             0.0921
     29 H7         27.9663   20.3527   61.4905 H         1             0.0713
     30 H8         25.9446   18.9968   62.1456 H         1             0.1002
     31 H9         26.1012   20.5082   63.0799 H         1             0.0782
     32 H10        23.3860   22.0874   60.9018 H         1             0.0950
     33 H11        24.4441   22.5098   62.2742 H         1             0.0992
     34 H12        25.3593   23.5018   60.2230 H         1             0.0721
     35 H13        25.3242   21.9183   59.4093 H         1             0.0942
     36 H14        23.5434   18.9343   63.4484 H         1             0.1986
     37 H15        18.9929   14.1889   63.5906 H         1             0.1468
     38 H16        19.5845   11.8526   64.0932 H         1             0.1680
     39 H17        23.6183   12.6159   63.4925 H         1             0.1702
     40 H18        23.1668   14.9762   62.9577 H         1             0.1497
     41 H19        21.6141   18.4387   58.9997 H         1             0.2666
     42 H20        23.3393   19.9869   59.4322 H         1             0.4593
@<TRIPOS>BOND
     1    1    2 1 
     2    1   24 1 
     3    1   25 1 
     4    1   26 1 
     5    2    7 1 
     6    2    3 1 
     7    2   27 1 
     8    3    4 1 
     9    3   28 1 
    10    3   29 1 
    11    4    5 1 
    12    4   30 1 
    13    4   31 1 
    14    5    6 1 
    15    5    8 1 
    16    6    7 1 
    17    6   32 1 
    18    6   33 1 
    19    7   34 1 
    20    7   35 1 
    21    8   23 1 
    22    8    9 2 
    23    9   10 1 
    24    9   36 1 
    25   10   11 2 
    26   10   20 1 
    27   11   12 1 
    28   12   13 2 
    29   12   14 1 
    30   14   19 ar
    31   14   15 ar
    32   15   16 ar
    33   15   37 1 
    34   16   17 ar
    35   16   38 1 
    36   17   18 ar
    37   18   19 ar
    38   18   39 1 
    39   19   40 1 
    40   20   21 1 
    41   20   22 2 
    42   22   23 1 
    43   22   41 1 
    44   23   42 1 
##########                 Name:           E206911654
##########          Protonation:                   30
##########               SMILES:   [H]/N=C(/c1cccc(c1)C)\NOC(=O)COc2ccccc2C
##########            Long Name:   [(3-methylbenzenecarboximidoyl)amino]
##########          FlexRecCode: 1
##########               Number:                  250
##########   Ligand Source File: /raidb/db2/rgc/leads-emolecules-300/leads-emolecules-3-an-0000016.db2.gz
##########           GlobalRank: 3176
##########                 Rank:                    1
##########               Setnum:                  225
##########             Matchnum:                 4904
##########                Cloud:                    1
##########        Electrostatic:            -7.710959
##########        Van der Waals:           -33.171516
##########  Ligand Polar Desolv:             5.074514
########## Ligand Apolar Desolv:            -4.822803
##########      Internal Energy:             0.000000
##########      Receptor Energy: 0.0
########## Receptor Desolvation:             0.000000
########## Receptor Hydrophobic:             0.000000
##########         Total Energy: -40.63
##########        Ligand Charge:             0.000000
##########            Arbitrary:    +999.9990
##########     heavy atom count:   22
##########           pose count:    1
##########        Ligand Energy:             0.000000
# num electro vdwattr vdwrepu polsolv apolsol rdesolv rhydroe totalscore fullpol fullapo
#   1   -1.51   -1.71    0.45   -0.12   -0.13    0.00    0.00      -3.01   -0.18   -0.20
#   2   -1.19   -2.49    0.73    0.03   -0.25    0.00    0.00      -3.17    0.05   -0.40
#   3   -0.73   -3.07    0.88   -0.07   -0.29    0.00    0.00      -3.28   -0.11   -0.45
#   4   -0.13   -4.10    1.68   -0.09   -0.32    0.00    0.00      -2.96   -0.13   -0.47
#   5   -0.50   -3.11    0.92    0.04   -0.28    0.00    0.00      -2.93    0.06   -0.44
#   6   -0.56   -2.16    0.45    0.14   -0.26    0.00    0.00      -2.38    0.22   -0.41
#   7   -0.90   -2.47    0.68    0.13   -0.26    0.00    0.00      -2.81    0.22   -0.43
#   8    5.09   -1.78    0.26   -1.03   -1.27    0.00    0.00       1.28   -1.79   -2.20
#   9  -12.05   -2.44    1.25    1.98    0.69    0.00    0.00     -10.57    3.75    1.30
#  10   -3.63   -1.83    0.29    1.00    0.38    0.00    0.00      -3.78    1.68    0.64
#  11   -0.52   -1.44    0.22    0.11   -0.37    0.00    0.00      -2.00    0.19   -0.64
#  12    1.67   -2.52    0.76   -0.45   -0.10    0.00    0.00      -0.65   -0.76   -0.17
#  13   -2.57   -3.89    1.70    1.90   -0.39    0.00    0.00      -3.26    2.91   -0.60
#  14    0.00   -1.94    1.03    0.07   -0.06    0.00    0.00      -0.90    0.13   -0.11
#  15   -0.33   -3.13    3.13    0.37    0.20    0.00    0.00       0.25    0.78    0.43
#  16   -0.23   -2.20    1.07   -0.06   -0.12    0.00    0.00      -1.55   -0.16   -0.31
#  17    0.40   -1.85    0.70   -0.09   -0.15    0.00    0.00      -0.99   -0.24   -0.42
#  18    0.20   -0.90    0.11   -0.04   -0.12    0.00    0.00      -0.76   -0.14   -0.47
#  19    0.56   -0.80    0.16   -0.02   -0.10    0.00    0.00      -0.21   -0.12   -0.47
#  20    0.54   -1.11    0.37    0.01   -0.11    0.00    0.00      -0.30    0.06   -0.45
#  21    0.51   -1.46    0.37    0.11   -0.14    0.00    0.00      -0.60    0.34   -0.41
#  22    0.48   -0.81    0.08    0.09   -0.08    0.00    0.00      -0.24    0.24   -0.20
#  23    0.84   -0.40    0.06    0.09   -0.15    0.00    0.00       0.44    0.17   -0.28
#  24    1.26   -0.98    0.76    0.15   -0.15    0.00    0.00       1.05    0.28   -0.28
#  25    0.68   -0.52    0.13    0.04   -0.14    0.00    0.00       0.20    0.08   -0.28
#  26    0.83   -0.67    0.19    0.35   -0.16    0.00    0.00       0.54    0.63   -0.28
#  27   -0.80   -1.29    0.69    0.44   -0.19    0.00    0.00      -1.16    0.65   -0.28
#  28    0.40   -0.99    1.23    0.09   -0.13    0.00    0.00       0.60    0.15   -0.22
#  29    2.39   -0.54    0.12   -0.24   -0.14    0.00    0.00       1.59   -0.46   -0.27
#  30    3.55   -0.03    0.00   -0.50    0.19    0.00    0.00       3.21   -1.37    0.53
#  31    1.51   -0.04    0.00   -0.44    0.18    0.00    0.00       1.22   -0.89    0.37
#  32    0.05   -1.03    1.29    0.43   -0.13    0.00    0.00       0.61    0.84   -0.26
#  33   -0.56   -0.64    0.56    0.35   -0.11    0.00    0.00      -0.40    0.83   -0.27
#  34   -0.13   -0.49    0.33    0.27   -0.07    0.00    0.00      -0.09    0.81   -0.22
#  35   -0.11   -0.11    0.00    0.07   -0.03    0.00    0.00      -0.17    0.68   -0.28
#  36   -0.29   -0.08    0.00    0.04   -0.02    0.00    0.00      -0.35    0.45   -0.28
#  37   -1.06   -0.14    0.01    0.03   -0.03    0.00    0.00      -1.19    0.22   -0.28
#  38   -0.57   -0.17    0.01   -0.03   -0.06    0.00    0.00      -0.83   -0.15   -0.28
#  39   -0.22   -0.22    0.03   -0.01   -0.06    0.00    0.00      -0.47   -0.03   -0.28
#  40   -0.09   -0.41    0.07   -0.08   -0.10    0.00    0.00      -0.61   -0.20   -0.26
@<TRIPOS>MOLECULE
E206911654
   40    41     0     0     0
SMALL
USER_CHARGES


@<TRIPOS>ATOM
      1 C1         14.0238   16.3186   65.0432 C.3       1            -0.1169
      2 C2         15.2997   15.6577   65.4975 C.ar      1            -0.0891
      3 C3         15.3380   14.9898   66.7087 C.ar      1            -0.0981
      4 C4         16.5055   14.3812   67.1325 C.ar      1            -0.1153
      5 C5         17.6400   14.4370   66.3484 C.ar      1            -0.1049
      6 C6         17.6075   15.1080   65.1269 C.ar      1            -0.0496
      7 C7         16.4258   15.7150   64.7023 C.ar      1            -0.0583
      8 C8         18.8217   15.1720   64.2810 C.2       1             0.4714
      9 N1         19.0193   16.1979   63.5000 N.2       1            -0.7300
     10 N2         19.7386   14.1521   64.3189 N.pl3     1            -0.6085
     11 O1         21.1070   14.4207   64.0732 O.3       1            -0.1153
     12 C9         21.8941   13.3407   64.1402 C.2       1             0.4485
     13 O2         21.4150   12.2559   64.3934 O.2       1            -0.4683
     14 C10        23.3763   13.4725   63.9008 C.3       1             0.0751
     15 O3         23.8109   14.7716   64.3081 O.3       1            -0.2904
     16 C11        24.8708   15.3036   63.6446 C.ar      1             0.1208
     17 C12        26.0949   14.6500   63.6525 C.ar      1            -0.2046
     18 C13        27.1705   15.1926   62.9770 C.ar      1            -0.0852
     19 C14        27.0283   16.3862   62.2933 C.ar      1            -0.1465
     20 C15        25.8101   17.0395   62.2842 C.ar      1            -0.0828
     21 C16        24.7295   16.4980   62.9536 C.ar      1            -0.1060
     22 C17        23.4001   17.2075   62.9382 C.3       1            -0.1101
     23 H1         13.2494   16.1692   65.7956 H         1             0.0740
     24 H2         14.1963   17.3862   64.9066 H         1             0.0693
     25 H3         13.7029   15.8786   64.0991 H         1             0.0706
     26 H4         14.4528   14.9439   67.3257 H         1             0.1286
     27 H5         16.5295   13.8618   68.0790 H         1             0.1313
     28 H6         18.5513   13.9620   66.6808 H         1             0.1223
     29 H7         16.3934   16.2326   63.7549 H         1             0.1436
     30 H8         19.8145   16.2398   62.9462 H         1             0.3463
     31 H9         19.4493   13.2470   64.5140 H         1             0.4232
     32 H10        23.9063   12.7146   64.4776 H         1             0.1141
     33 H11        23.5865   13.3351   62.8402 H         1             0.1139
     34 H12        26.2063   13.7180   64.1867 H         1             0.1293
     35 H13        28.1235   14.6844   62.9830 H         1             0.1280
     36 H14        27.8706   16.8088   61.7656 H         1             0.1271
     37 H15        25.7017   17.9717   61.7498 H         1             0.1325
     38 H16        23.4826   18.1211   62.3492 H         1             0.0706
     39 H17        22.6460   16.5569   62.4957 H         1             0.0676
     40 H18        23.1102   17.4581   63.9587 H         1             0.0722
@<TRIPOS>BOND
     1    1    2 1 
     2    1   23 1 
     3    1   24 1 
     4    1   25 1 
     5    2    7 ar
     6    2    3 ar
     7    3    4 ar
     8    3   26 1 
     9    4    5 ar
    10    4   27 1 
    11    5    6 ar
    12    5   28 1 
    13    6    7 ar
    14    6    8 1 
    15    7   29 1 
    16    8    9 2 
    17    8   10 1 
    18    9   30 1 
    19   10   11 1 
    20   10   31 1 
    21   11   12 1 
    22   12   13 2 
    23   12   14 1 
    24   14   15 1 
    25   14   32 1 
    26   14   33 1 
    27   15   16 1 
    28   16   21 ar
    29   16   17 ar
    30   17   18 ar
    31   17   34 1 
    32   18   19 ar
    33   18   35 1 
    34   19   20 ar
    35   19   36 1 
    36   20   21 ar
    37   20   37 1 
    38   21   22 1 
    39   22   38 1 
    40   22   39 1 
    41   22   40 1 
##########                 Name:            E46165174
##########          Protonation:                   91
##########               SMILES:   Cn1cc(cn1)C[NH+]2CC[C@H]3[C@H](C2)C[C@@H](O3)c4ccncn4
##########            Long Name:   methyl]-2-pyrimidin-4-yl-2,3,3a,4,5,6,7,7a-octahydrofuro[3,2-c]pyridin-5-ium
##########          FlexRecCode: 1
##########               Number:                  933
##########   Ligand Source File: /raidb/db2/rgc/leads-emolecules-300/leads-emolecules-3-cp-0000019.db2.gz
##########           GlobalRank: 3190
##########                 Rank:                    1
##########               Setnum:                    4
##########             Matchnum:                 3695
##########                Cloud:                    1
##########        Electrostatic:           -20.735970
##########        Van der Waals:           -25.762451
##########  Ligand Polar Desolv:             8.148259
########## Ligand Apolar Desolv:            -2.274020
##########      Internal Energy:             0.000000
##########      Receptor Energy: 0.0
########## Receptor Desolvation:             0.000000
########## Receptor Hydrophobic:             0.000000
##########         Total Energy: -40.62
##########        Ligand Charge:             1.000000
##########            Arbitrary:    +999.9990
##########     heavy atom count:   22
##########           pose count:    1
##########        Ligand Energy:             0.000000
# num electro vdwattr vdwrepu polsolv apolsol rdesolv rhydroe totalscore fullpol fullapo
#   1   -0.48   -1.19    0.51    0.43   -0.21    0.00    0.00      -0.94    1.24   -0.61
#   2    2.81   -1.22    0.19   -1.95    0.40    0.00    0.00       0.23   -6.14    1.27
#   3   -1.60   -1.62    0.46    0.57   -0.27    0.00    0.00      -2.47    1.77   -0.84
#   4    4.48   -1.04    0.24   -1.76   -0.09    0.00    0.00       1.82   -6.41   -0.33
#   5   -1.06   -0.56    0.05    0.75   -0.09    0.00    0.00      -0.91    2.65   -0.33
#   6    7.77   -1.24    0.54   -3.61    0.13    0.00    0.00       3.59  -11.28    0.42
#   7  -11.44   -0.06    0.01    4.32    0.15    0.00    0.00      -7.03   16.07    0.54
#   8    0.18   -1.41    0.55    0.15   -0.17    0.00    0.00      -0.70    0.35   -0.39
#   9    2.28   -0.85    0.07   -1.43   -0.11    0.00    0.00      -0.03   -3.16   -0.24
#  10   -0.66   -0.72    0.07    0.35   -0.05    0.00    0.00      -1.02    0.82   -0.12
#  11    0.38   -1.23    0.17   -2.71    0.62    0.00    0.00      -2.78   -6.19    1.41
#  12    0.03   -1.09    0.20    0.85   -0.07    0.00    0.00      -0.08    1.95   -0.16
#  13    0.53   -0.79    0.09   -0.95   -0.09    0.00    0.00      -1.20   -2.62   -0.25
#  14    1.41   -0.60    0.03   -1.18   -0.05    0.00    0.00      -0.38   -3.41   -0.15
#  15   -0.15   -0.57    0.04    0.28   -0.12    0.00    0.00      -0.52    0.91   -0.39
#  16    0.36   -1.66    0.39    0.72   -0.30    0.00    0.00      -0.48    1.56   -0.64
#  17   -1.18   -1.59    0.31   -1.25   -0.24    0.00    0.00      -3.96   -2.36   -0.46
#  18    0.72   -1.84    0.30    0.49   -0.59    0.00    0.00      -0.93    0.81   -0.98
#  19   -1.88   -2.58    0.46   -2.11    1.34    0.00    0.00      -4.76   -3.29    2.10
#  20    1.01   -2.96    0.97    1.13   -1.90    0.00    0.00      -1.77    1.88   -3.17
#  21   -0.52   -1.95    0.45   -2.46    0.94    0.00    0.00      -3.53   -4.87    1.87
#  22   -0.53   -0.84    0.16    0.27   -0.24    0.00    0.00      -1.19    1.15   -1.05
#  23    1.35   -0.89    0.09   -1.57    0.37    0.00    0.00      -0.64   -5.55    1.30
#  24   -1.30   -0.75    0.84    0.36   -0.08    0.00    0.00      -0.93    1.32   -0.28
#  25   -0.50   -0.21    0.03    0.47   -0.06    0.00    0.00      -0.26    2.38   -0.28
#  26   -0.57   -0.45    0.30    0.14   -0.08    0.00    0.00      -0.66    0.52   -0.28
#  27   -4.75   -0.58    0.39    1.99   -0.09    0.00    0.00      -3.05    5.97   -0.28
#  28   -1.18   -0.11    0.00    0.78   -0.03    0.00    0.00      -0.54    6.39   -0.28
#  29   -1.88   -0.24    0.04    0.98   -0.03    0.00    0.00      -1.14    4.65   -0.16
#  30   -4.33   -0.78    0.73    1.51   -0.08    0.00    0.00      -2.95    3.90   -0.20
#  31   -3.71   -0.62    0.24    1.97   -0.13    0.00    0.00      -2.26    4.35   -0.28
#  32   -1.63   -0.37    0.10    0.99   -0.07    0.00    0.00      -0.98    3.17   -0.22
#  33   -2.10   -0.29    0.03    0.58   -0.10    0.00    0.00      -1.89    1.62   -0.28
#  34   -0.80   -0.38    0.20    0.27   -0.08    0.00    0.00      -0.78    0.95   -0.27
#  35    0.28   -0.72    0.43    1.04   -0.12    0.00    0.00       0.92    2.40   -0.27
#  36   -0.40   -0.43    0.17    0.76   -0.07    0.00    0.00       0.02    2.83   -0.28
#  37   -0.46   -0.22    0.04    0.28   -0.05    0.00    0.00      -0.41    1.34   -0.25
#  38   -0.97   -0.25    0.03    1.09   -0.05    0.00    0.00      -0.16    4.55   -0.22
#  39   -1.67   -0.30    0.08    1.23   -0.07    0.00    0.00      -0.73    4.46   -0.27
#  40   -1.21   -0.11    0.00    0.74   -0.03    0.00    0.00      -0.60    6.82   -0.28
#  41    1.57   -0.31    0.04    0.96   -0.09    0.00    0.00       2.17    2.85   -0.28
#  42    0.95   -0.49    0.22    0.91   -0.13    0.00    0.00       1.46    1.96   -0.28
#  43    0.97   -1.37    1.57    1.21   -0.16    0.00    0.00       2.22    2.13   -0.28
#  44   -0.89   -0.11    0.01    0.58   -0.03    0.00    0.00      -0.43    5.03   -0.28
@<TRIPOS>MOLECULE
E46165174
   44    47     0     0     0
SMALL
USER_CHARGES


@<TRIPOS>ATOM
      1 C1         24.0380   24.6539   58.6747 C.3       1             0.0860
      2 N1         24.6789   23.4406   59.1881 N.pl3     1            -0.3518
      3 C2         24.0865   22.4845   59.9337 C.2       1             0.0982
      4 C3         25.0143   21.5367   60.2019 C.2       1            -0.3180
      5 C4         24.7930   20.2820   61.0067 C.3       1             0.0750
      6 N2         24.3631   19.1972   60.1142 N.4       1            -0.3817
      7 H1         24.8918   19.2515   59.2564 H         1             0.4285
      8 C5         22.9435   19.3706   59.8074 C.3       1            -0.0069
      9 C6         22.0681   19.2467   61.0669 C.3       1            -0.1334
     10 C7         22.3588   17.8941   61.6778 C.3       1             0.0719
     11 O1         21.6847   17.5076   62.8567 O.3       1            -0.3373
     12 C8         22.5381   16.5906   63.5800 C.3       1             0.1351
     13 C9         23.9035   16.5461   62.8377 C.3       1            -0.1287
     14 C10        23.8638   17.8766   62.0683 C.3       1            -0.1643
     15 C11        24.6416   17.9032   60.7662 C.3       1             0.0126
     16 C12        21.9180   15.2172   63.5950 C.ar      1             0.1496
     17 C13        20.5402   15.0682   63.5628 C.ar      1            -0.2093
     18 C14        20.0155   13.7857   63.5783 C.ar      1             0.1575
     19 N3         20.8417   12.7526   63.6230 N.ar      1            -0.5105
     20 C15        22.1467   12.9325   63.6525 C.ar      1             0.2996
     21 N4         22.6815   14.1371   63.6336 N.ar      1            -0.5120
     22 C16        26.2148   21.9270   59.5996 C.2       1             0.0706
     23 N5         26.0134   23.0651   58.9864 N.2       1            -0.2717
     24 H2         22.9956   24.6763   58.9923 H         1             0.0892
     25 H3         24.5553   25.5307   59.0643 H         1             0.0989
     26 H4         24.0863   24.6575   57.5858 H         1             0.1023
     27 H5         23.0566   22.4773   60.2585 H         1             0.1838
     28 H6         25.7222   19.9988   61.5011 H         1             0.1379
     29 H7         24.0227   20.4624   61.7565 H         1             0.1328
     30 H8         22.7932   20.3558   59.3658 H         1             0.1342
     31 H9         22.6401   18.6103   59.0877 H         1             0.1308
     32 H10        22.3212   20.0362   61.7744 H         1             0.0947
     33 H11        21.0146   19.3132   60.7951 H         1             0.1198
     34 H12        22.1898   17.1265   60.9225 H         1             0.0802
     35 H13        22.6825   16.9452   64.6005 H         1             0.1178
     36 H14        24.7336   16.5256   63.5439 H         1             0.1023
     37 H15        23.9510   15.6987   62.1540 H         1             0.1010
     38 H16        24.1210   18.7166   62.7137 H         1             0.1178
     39 H17        24.3164   17.0858   60.1225 H         1             0.1366
     40 H18        25.7082   17.8132   60.9716 H         1             0.1395
     41 H19        19.8913   15.9307   63.5270 H         1             0.1524
     42 H20        18.9469   13.6312   63.5546 H         1             0.1758
     43 H21        22.7956   12.0700   63.6891 H         1             0.2002
     44 H22        27.1459   21.3807   59.6309 H         1             0.1933
@<TRIPOS>BOND
     1    1    2 1 
     2    1   24 1 
     3    1   25 1 
     4    1   26 1 
     5    2   23 1 
     6    2    3 1 
     7    3    4 2 
     8    3   27 1 
     9    4    5 1 
    10    4   22 1 
    11    5    6 1 
    12    5   28 1 
    13    5   29 1 
    14    6    7 1 
    15    6   15 1 
    16    6    8 1 
    17    8    9 1 
    18    8   30 1 
    19    8   31 1 
    20    9   10 1 
    21    9   32 1 
    22    9   33 1 
    23   10   14 1 
    24   10   11 1 
    25   10   34 1 
    26   11   12 1 
    27   12   13 1 
    28   12   16 1 
    29   12   35 1 
    30   13   14 1 
    31   13   36 1 
    32   13   37 1 
    33   14   15 1 
    34   14   38 1 
    35   15   39 1 
    36   15   40 1 
    37   16   21 ar
    38   16   17 ar
    39   17   18 ar
    40   17   41 1 
    41   18   19 ar
    42   18   42 1 
    43   19   20 ar
    44   20   21 ar
    45   20   43 1 
    46   22   23 2 
    47   22   44 1 
##########                 Name:             E1444542
##########          Protonation:                   98
##########               SMILES:   CCNc1[nH+]/c(=[NH+]/CC)/[n-]c(n1)Oc2ccc(=O)n(n2)C
##########            Long Name:   dazin-3-yl)oxy-5-aza-3-azonia-1-azanidacyclohexa-3,5-dien-2-ylidene]ammonium
##########          FlexRecCode: 1
##########               Number:                   26
##########   Ligand Source File: /raidb/db2/rgc/leads-emolecules-300/leads-emolecules-2e-0000078.db2.gz
##########           GlobalRank: 3223
##########                 Rank:                    1
##########               Setnum:                  323
##########             Matchnum:                 5055
##########                Cloud:                    1
##########        Electrostatic:           -24.019661
##########        Van der Waals:           -25.925995
##########  Ligand Polar Desolv:            10.731516
########## Ligand Apolar Desolv:            -1.384919
##########      Internal Energy:             0.000000
##########      Receptor Energy: 0.0
########## Receptor Desolvation:             0.000000
########## Receptor Hydrophobic:             0.000000
##########         Total Energy: -40.6
##########        Ligand Charge:             1.000000
##########            Arbitrary:    +999.9990
##########     heavy atom count:   21
##########           pose count:    1
##########        Ligand Energy:             0.000000
# num electro vdwattr vdwrepu polsolv apolsol rdesolv rhydroe totalscore fullpol fullapo
#   1    0.65   -0.32    0.03   -0.56   -0.03    0.00    0.00      -0.23   -3.48   -0.20
#   2   -0.70   -0.37    0.01    0.53   -0.09    0.00    0.00      -0.60    2.32   -0.37
#   3    9.29   -1.17    0.26   -4.22    0.49    0.00    0.00       4.65  -14.77    1.73
#   4  -10.81   -1.00    0.12    5.02   -1.54    0.00    0.00      -8.22   15.70   -4.81
#   5   14.89   -1.75    0.48   -6.01    0.41    0.00    0.00       8.02  -15.03    1.03
#   6  -15.30   -0.08    0.01    5.87    0.23    0.00    0.00      -9.28   14.99    0.58
#   7  -13.59   -1.42    0.15    7.38   -2.22    0.00    0.00      -9.70   15.99   -4.81
#   8    6.12   -1.26    0.12   -5.23    1.31    0.00    0.00       1.06  -11.36    2.84
#   9   -4.74   -1.06    0.07    4.08   -0.86    0.00    0.00      -2.52   10.35   -2.18
#  10    0.26   -1.43    0.19   -1.17    0.19    0.00    0.00      -1.96   -2.62    0.42
#  11    0.27   -1.65    0.34    1.50   -0.29    0.00    0.00       0.16    3.48   -0.67
#  12   -0.98   -1.68    0.36   -1.08    0.82    0.00    0.00      -2.56   -2.39    1.82
#  13   -1.77   -1.61    0.27   -2.26    0.99    0.00    0.00      -4.38   -3.92    1.72
#  14    0.53   -1.28    0.27    0.55   -0.33    0.00    0.00      -0.26    0.93   -0.56
#  15    1.54   -2.13    0.46    1.73   -0.38    0.00    0.00       1.22    2.92   -0.64
#  16   -2.66   -3.35    1.13   -0.56    0.29    0.00    0.00      -5.16   -0.86    0.44
#  17   -0.02   -2.27    0.73   -0.92   -0.23    0.00    0.00      -2.71   -1.81   -0.46
#  18    0.02   -1.81    0.49   -0.16   -0.20    0.00    0.00      -1.66   -0.36   -0.46
#  19    5.56   -0.82    0.04   -3.68    0.68    0.00    0.00       1.78  -11.30    2.08
#  20   15.58   -2.73    1.29   -8.22    0.91    0.00    0.00       6.84  -14.90    1.65
#  21  -13.49   -0.13    0.04    6.09    0.28    0.00    0.00      -7.21   12.97    0.59
#  22   -1.63   -1.84    0.81    1.45   -0.33    0.00    0.00      -1.55    2.30   -0.53
#  23    2.76   -2.35    0.75   -2.21   -0.14    0.00    0.00      -1.20   -3.24   -0.21
#  24   -0.09   -0.09    0.01    0.13   -0.02    0.00    0.00      -0.06    1.44   -0.28
#  25   -0.22   -0.06    0.00    0.08   -0.01    0.00    0.00      -0.21    1.58   -0.28
#  26   -0.35   -0.19    0.06    0.23   -0.04    0.00    0.00      -0.29    1.58   -0.28
#  27   -0.35   -0.11    0.00    0.19   -0.03    0.00    0.00      -0.29    1.63   -0.25
#  28   -0.58   -0.10    0.00    0.17   -0.02    0.00    0.00      -0.54    1.63   -0.24
#  29   -8.73   -0.05    0.00    3.33    0.15    0.00    0.00      -5.30   12.71    0.57
#  30    0.31   -0.54    0.23    1.35   -0.07    0.00    0.00       1.28    2.56   -0.13
#  31    0.71   -0.33    0.04    0.29   -0.11    0.00    0.00       0.60    0.75   -0.28
#  32    0.63   -0.49    0.18    0.32   -0.12    0.00    0.00       0.52    0.75   -0.28
#  33   -0.51   -0.66    0.40    1.01   -0.12    0.00    0.00       0.11    2.26   -0.28
#  34   -0.29   -0.33    0.08    1.14   -0.08    0.00    0.00       0.51    4.09   -0.28
#  35   -1.25   -0.59    0.43    1.41   -0.14    0.00    0.00      -0.14    2.73   -0.28
#  36   -1.51   -1.20    2.53    0.86   -0.11    0.00    0.00       0.57    1.75   -0.23
#  37   -1.30   -0.92    0.62    0.75   -0.20    0.00    0.00      -1.06    1.03   -0.28
#  38   -1.18   -0.93    0.88    0.48   -0.18    0.00    0.00      -0.93    0.74   -0.28
#  39   -1.09   -1.27    1.59    1.05   -0.20    0.00    0.00       0.09    1.49   -0.28
@<TRIPOS>MOLECULE
E1444542
   39    40     0     0     0
SMALL
USER_CHARGES


@<TRIPOS>ATOM
      1 C1         27.3524   18.9343   61.4818 C.3       1            -0.1779
      2 C2         26.6158   17.9226   60.6015 C.3       1             0.1083
      3 N1         25.4760   18.5770   59.9544 N.pl3     1            -0.6471
      4 C3         24.2431   18.5873   60.5743 C.cat     1             0.6846
      5 N2         23.2089   19.1768   59.9853 N.pl3     1            -0.6287
      6 H1         23.3202   19.5999   59.1196 H         1             0.4432
      7 C4         22.0205   19.1852   60.5829 C.2       1             0.6946
      8 N3         21.8699   18.6051   61.7698 N.2       1            -0.5725
      9 C5         22.9048   18.0171   62.3578 C.2       1             0.6411
     10 O1         22.7506   17.4265   63.5656 O.3       1            -0.1585
     11 C6         22.3982   16.1149   63.5938 C.2       1             0.2515
     12 N4         21.1317   15.7827   63.6113 N.2       1            -0.2027
     13 N5         20.7451   14.4378   63.6406 N.am      1            -0.3933
     14 C7         19.3228   14.0871   63.6598 C.3       1             0.0884
     15 C8         21.6775   13.4640   63.6505 C.2       1             0.4894
     16 O2         21.3410   12.2906   63.6753 O.2       1            -0.5056
     17 C9         23.0439   13.8105   63.6319 C.2       1            -0.1171
     18 C10        23.3969   15.1235   63.5983 C.2       1            -0.0766
     19 N6         24.0896   18.0033   61.7592 N.2       1            -0.5683
     20 N7         20.9447   19.7967   59.9720 N.pl3     1            -0.6463
     21 H2         21.0549   20.2202   59.1063 H         1             0.4312
     22 C11        19.6366   19.8065   60.6311 C.3       1             0.0993
     23 C12        18.6262   20.5424   59.7487 C.3       1            -0.1758
     24 H3         28.2005   18.4473   61.9632 H         1             0.0971
     25 H4         27.7089   19.7599   60.8661 H         1             0.0726
     26 H5         26.6724   19.3162   62.2433 H         1             0.0726
     27 H6         27.2958   17.5406   59.8400 H         1             0.0976
     28 H7         26.2592   17.0969   61.2174 H         1             0.0978
     29 H8         25.5879   19.0030   59.0901 H         1             0.4297
     30 H9         19.2163   13.0025   63.6816 H         1             0.0935
     31 H10        18.8548   14.5160   64.5460 H         1             0.0887
     32 H11        18.8391   14.4820   62.7663 H         1             0.0888
     33 H12        23.8021   13.0414   63.6397 H         1             0.1850
     34 H13        24.4396   15.4043   63.5790 H         1             0.1711
     35 H14        19.3017   18.7813   60.7893 H         1             0.1032
     36 H15        19.7175   20.3146   61.5920 H         1             0.1190
     37 H16        17.6529   20.5496   60.2390 H         1             0.0910
     38 H17        18.9610   21.5676   59.5905 H         1             0.0645
     39 H18        18.5451   20.0343   58.7877 H         1             0.0665
@<TRIPOS>BOND
     1    1    2 1 
     2    1   24 1 
     3    1   25 1 
     4    1   26 1 
     5    2    3 1 
     6    2   27 1 
     7    2   28 1 
     8    3    4 1 
     9    3   29 1 
    10    4   19 1 
    11    4    5 2 
    12    5    6 1 
    13    5    7 1 
    14    7    8 1 
    15    7   20 2 
    16    8    9 1 
    17    9   10 1 
    18    9   19 2 
    19   10   11 1 
    20   11   18 1 
    21   11   12 2 
    22   12   13 1 
    23   13   14 1 
    24   13   15 am
    25   14   30 1 
    26   14   31 1 
    27   14   32 1 
    28   15   16 2 
    29   15   17 1 
    30   17   18 2 
    31   17   33 1 
    32   18   34 1 
    33   20   21 1 
    34   20   22 1 
    35   22   23 1 
    36   22   35 1 
    37   22   36 1 
    38   23   37 1 
    39   23   38 1 
    40   23   39 1 
##########                 Name:            E17449191
##########          Protonation:                  100
##########               SMILES:   Cc1ccc(cc1)CNC(=O)NCc2c3ccccc3on2
##########            Long Name:   1-(1,2-benzoxazol-3-ylmethyl)-3-(p-tolylmethyl)urea
##########          FlexRecCode: 1
##########               Number:                  475
##########   Ligand Source File: /raidb/db2/rgc/leads-emolecules-300/leads-emolecules-2g-0000312.db2.gz
##########           GlobalRank: 3256
##########                 Rank:                    1
##########               Setnum:                  119
##########             Matchnum:                 4130
##########                Cloud:                    1
##########        Electrostatic:            -7.005863
##########        Van der Waals:           -36.026867
##########  Ligand Polar Desolv:             5.167040
########## Ligand Apolar Desolv:            -2.710832
##########      Internal Energy:             0.000000
##########      Receptor Energy: 0.0
########## Receptor Desolvation:             0.000000
########## Receptor Hydrophobic:             0.000000
##########         Total Energy: -40.58
##########        Ligand Charge:             0.000000
##########            Arbitrary:    +999.9990
##########     heavy atom count:   22
##########           pose count:    1
##########        Ligand Energy:             0.000000
# num electro vdwattr vdwrepu polsolv apolsol rdesolv rhydroe totalscore fullpol fullapo
#   1   -0.95   -1.42    0.30   -0.17   -0.13    0.00    0.00      -2.37   -0.26   -0.20
#   2   -0.74   -2.31    0.92   -0.03   -0.27    0.00    0.00      -2.42   -0.04   -0.41
#   3   -1.00   -3.11    1.25   -0.01   -0.29    0.00    0.00      -3.17   -0.02   -0.45
#   4   -0.57   -3.46    1.10    0.01   -0.29    0.00    0.00      -3.22    0.01   -0.45
#   5   -1.28   -2.71    0.78   -0.01   -0.24    0.00    0.00      -3.46   -0.02   -0.37
#   6    1.69   -2.08    0.58   -0.08   -0.29    0.00    0.00      -0.18   -0.12   -0.44
#   7   -2.53   -3.59    1.65   -0.06    1.52    0.00    0.00      -3.02   -0.10    2.39
#   8    4.16   -2.72    1.19   -1.02   -1.28    0.00    0.00       0.33   -1.71   -2.14
#   9   -5.88   -1.54    0.17    2.71    0.24    0.00    0.00      -4.30    4.61    0.41
#  10   -1.38   -3.73    2.21    0.04    1.49    0.00    0.00      -1.38    0.06    2.39
#  11    0.60   -1.78    0.40   -0.12   -0.31    0.00    0.00      -1.21   -0.19   -0.48
#  12    0.39   -2.32    0.51   -0.20   -0.47    0.00    0.00      -2.09   -0.33   -0.76
#  13   -1.39   -4.96    3.79    1.14    0.73    0.00    0.00      -0.69    1.87    1.20
#  14    0.07   -2.90    1.49    0.45   -0.05    0.00    0.00      -0.94    0.86   -0.09
#  15   -0.01   -1.98    0.60   -0.06   -0.17    0.00    0.00      -1.61   -0.12   -0.35
#  16    0.18   -1.87    0.62   -0.02   -0.19    0.00    0.00      -1.28   -0.04   -0.48
#  17    0.16   -1.47    0.23   -0.06   -0.19    0.00    0.00      -1.34   -0.16   -0.47
#  18    0.09   -1.39    0.20   -0.25   -0.20    0.00    0.00      -1.56   -0.59   -0.47
#  19   -0.11   -1.64    0.57   -0.04   -0.20    0.00    0.00      -1.42   -0.09   -0.47
#  20   -0.38   -1.82    0.70    0.15   -0.23    0.00    0.00      -1.58    0.30   -0.45
#  21   -1.42   -2.57    0.78   -0.04   -0.28    0.00    0.00      -3.53   -0.06   -0.45
#  22   -1.42   -2.76    1.15   -0.06   -0.27    0.00    0.00      -3.37   -0.10   -0.45
#  23    0.51   -0.42    0.10    0.11   -0.15    0.00    0.00       0.16    0.21   -0.28
#  24    0.54   -0.94    1.16    0.10   -0.14    0.00    0.00       0.72    0.19   -0.28
#  25    0.54   -0.37    0.06    0.10   -0.13    0.00    0.00       0.19    0.21   -0.28
#  26    0.92   -1.02    1.17    0.13   -0.16    0.00    0.00       1.04    0.22   -0.28
#  27   -0.09   -1.24    1.33    0.06   -0.18    0.00    0.00      -0.12    0.10   -0.28
#  28    1.17   -0.62    0.18   -0.04   -0.15    0.00    0.00       0.54   -0.08   -0.28
#  29    0.52   -1.32    1.34   -0.08   -0.18    0.00    0.00       0.29   -0.12   -0.28
#  30   -1.27   -0.10    0.01    0.66    0.35    0.00    0.00      -0.36    1.06    0.57
#  31   -1.24   -0.10    0.01    0.49    0.35    0.00    0.00      -0.50    0.79    0.57
#  32    0.07   -0.92    0.47    0.05   -0.18    0.00    0.00      -0.52    0.08   -0.28
#  33    0.42   -0.52    0.17   -0.10   -0.15    0.00    0.00      -0.18   -0.20   -0.28
#  34   -0.29   -0.41    0.14    0.08   -0.08    0.00    0.00      -0.56    0.27   -0.28
#  35   -0.80   -0.32    0.06    0.38   -0.08    0.00    0.00      -0.75    1.40   -0.28
#  36   -0.28   -0.28    0.04    0.40   -0.08    0.00    0.00      -0.20    1.34   -0.28
#  37    0.88   -0.29    0.05    0.25   -0.09    0.00    0.00       0.79    0.76   -0.28
#  38    2.30   -0.49    0.11    0.15   -0.14    0.00    0.00       1.94    0.30   -0.28
#  39    0.84   -0.91    0.78    0.19   -0.15    0.00    0.00       0.75    0.35   -0.28
@<TRIPOS>MOLECULE
E17449191
   39    41     0     0     0
SMALL
USER_CHARGES


@<TRIPOS>ATOM
      1 C1         11.8705   15.3333   64.8859 C.3       1            -0.1194
      2 C2         13.3063   15.3304   65.3439 C.ar      1            -0.0752
      3 C3         13.6345   14.8210   66.5863 C.ar      1            -0.1234
      4 C4         14.9515   14.8183   67.0063 C.ar      1            -0.0942
      5 C5         15.9403   15.3249   66.1838 C.ar      1            -0.1191
      6 C6         17.3760   15.3225   66.6419 C.3       1             0.1817
      7 N1         18.0174   14.0709   66.2318 N.am      1            -0.7391
      8 C7         18.6346   13.9901   65.0364 C.2       1             0.7098
      9 O1         18.6589   14.9560   64.2983 O.2       1            -0.5836
     10 N2         19.2247   12.8387   64.6591 N.am      1            -0.7431
     11 C8         19.8955   12.7508   63.3597 C.3       1             0.2138
     12 C9         21.3412   13.1476   63.5129 C.2       1             0.1127
     13 N3         22.3311   12.3536   63.7830 N.2       1            -0.2624
     14 O2         23.5335   13.0939   63.8468 O.3       1            -0.0842
     15 C10        23.2704   14.3941   63.6063 C.ar      1             0.0839
     16 C11        24.0622   15.5347   63.5472 C.ar      1            -0.1243
     17 C12        23.4852   16.7555   63.2725 C.ar      1            -0.0564
     18 C13        22.1186   16.8578   63.0537 C.ar      1            -0.1460
     19 C14        21.3225   15.7487   63.1072 C.ar      1            -0.0370
     20 C15        21.8885   14.5007   63.3780 C.ar      1            -0.1926
     21 C16        15.6123   15.8331   64.9408 C.ar      1            -0.0944
     22 C17        14.2958   15.8322   64.5192 C.ar      1            -0.1237
     23 H1         11.2402   14.9021   65.6637 H         1             0.0727
     24 H2         11.5542   16.3574   64.6883 H         1             0.0683
     25 H3         11.7786   14.7424   63.9747 H         1             0.0682
     26 H4         12.8619   14.4252   67.2288 H         1             0.1245
     27 H5         15.2078   14.4209   67.9773 H         1             0.1247
     28 H6         17.9021   16.1647   66.1924 H         1             0.0770
     29 H7         17.4110   15.4099   67.7278 H         1             0.0768
     30 H8         17.9979   13.3002   66.8206 H         1             0.3985
     31 H9         19.2052   12.0681   65.2478 H         1             0.4003
     32 H10        19.8369   11.7275   62.9887 H         1             0.1010
     33 H11        19.4076   13.4219   62.6527 H         1             0.0975
     34 H12        25.1265   15.4645   63.7165 H         1             0.1417
     35 H13        24.1020   17.6409   63.2273 H         1             0.1429
     36 H14        21.6807   17.8216   62.8398 H         1             0.1374
     37 H15        20.2598   15.8358   62.9360 H         1             0.1355
     38 H16        16.3849   16.2285   64.2981 H         1             0.1246
     39 H17        14.0399   16.2263   63.5468 H         1             0.1244
@<TRIPOS>BOND
     1    1    2 1 
     2    1   23 1 
     3    1   24 1 
     4    1   25 1 
     5    2   22 ar
     6    2    3 ar
     7    3    4 ar
     8    3   26 1 
     9    4    5 ar
    10    4   27 1 
    11    5    6 1 
    12    5   21 ar
    13    6    7 1 
    14    6   28 1 
    15    6   29 1 
    16    7    8 am
    17    7   30 1 
    18    8    9 2 
    19    8   10 am
    20   10   11 1 
    21   10   31 1 
    22   11   12 1 
    23   11   32 1 
    24   11   33 1 
    25   12   20 1 
    26   12   13 2 
    27   13   14 1 
    28   14   15 1 
    29   15   20 ar
    30   15   16 ar
    31   16   17 ar
    32   16   34 1 
    33   17   18 ar
    34   17   35 1 
    35   18   19 ar
    36   18   36 1 
    37   19   20 ar
    38   19   37 1 
    39   21   22 ar
    40   21   38 1 
    41   22   39 1 
##########                 Name:             E2057227
##########          Protonation:                   73
##########               SMILES:   C[NH+]1CCN(CC1)Cc2cc(ccc2Cl)[N+](=O)[O-]
##########            Long Name:   1-[(2-chloro-5-nitro-phenyl)methyl]-4-methyl-piperazin-4-ium
##########          FlexRecCode: 1
##########               Number:                  305
##########   Ligand Source File: /raidb/db2/rgc/leads-emolecules-300/leads-emolecules-3-an-0000008.db2.gz
##########           GlobalRank: 3288
##########                 Rank:                    1
##########               Setnum:                    9
##########             Matchnum:                 4191
##########                Cloud:                    1
##########        Electrostatic:           -25.552429
##########        Van der Waals:           -24.365673
##########  Ligand Polar Desolv:            12.046224
########## Ligand Apolar Desolv:            -2.689169
##########      Internal Energy:             0.000000
##########      Receptor Energy: 0.0
########## Receptor Desolvation:             0.000000
########## Receptor Hydrophobic:             0.000000
##########         Total Energy: -40.56
##########        Ligand Charge:             1.000000
##########            Arbitrary:    +999.9990
##########     heavy atom count:   18
##########           pose count:    1
##########        Ligand Energy:             0.000000
# num electro vdwattr vdwrepu polsolv apolsol rdesolv rhydroe totalscore fullpol fullapo
#   1    1.19   -0.90    0.29   -0.60   -0.14    0.00    0.00      -0.17   -1.89   -0.45
#   2   10.85   -2.19    1.69   -4.76    0.24    0.00    0.00       5.83  -11.49    0.57
#   3  -17.40   -0.14    0.04    7.61    0.25    0.00    0.00      -9.65   16.87    0.56
#   4    0.07   -1.30    0.34    0.23   -0.20    0.00    0.00      -0.86    0.50   -0.43
#   5   -0.37   -1.22    0.29    0.16   -0.17    0.00    0.00      -1.31    0.36   -0.39
#   6    4.71   -1.10    0.08   -5.60    1.37    0.00    0.00      -0.54  -12.80    3.14
#   7   -0.21   -1.10    0.18    0.85   -0.15    0.00    0.00      -0.42    1.90   -0.33
#   8   -0.08   -1.52    0.27   -0.33   -0.13    0.00    0.00      -1.78   -0.77   -0.30
#   9   -0.21   -1.65    0.37   -0.14   -0.18    0.00    0.00      -1.81   -0.30   -0.40
#  10   -0.19   -1.69    0.37   -0.47   -0.41    0.00    0.00      -2.38   -0.81   -0.70
#  11   -0.08   -2.21    0.58   -0.35   -0.26    0.00    0.00      -2.33   -0.61   -0.45
#  12    0.09   -2.05    0.57   -0.70   -0.22    0.00    0.00      -2.32   -1.44   -0.46
#  13   -0.03   -1.52    0.29    0.23   -0.13    0.00    0.00      -1.16    0.55   -0.30
#  14    0.09   -2.84    0.94   -0.06   -0.33    0.00    0.00      -2.20   -0.18   -0.95
#  15    0.14   -2.06    0.46    0.11    0.25    0.00    0.00      -1.11    0.18    0.42
#  16   -0.23   -3.29    1.66   -0.44   -0.40    0.00    0.00      -2.71   -0.69   -0.63
#  17   -1.18   -1.94    0.74   -0.34   -0.37    0.00    0.00      -3.10   -0.58   -0.63
#  18   -0.22   -0.62    0.05    0.03   -0.13    0.00    0.00      -0.89    0.08   -0.37
#  19    0.04   -1.37    0.47    0.23   -0.17    0.00    0.00      -0.80    0.56   -0.43
#  20   -1.80   -0.16    0.01    0.71   -0.05    0.00    0.00      -1.29    4.28   -0.28
#  21   -2.54   -0.34    0.25    0.85   -0.05    0.00    0.00      -1.84    4.67   -0.28
#  22   -2.34   -0.25    0.04    0.71   -0.04    0.00    0.00      -1.88    2.88   -0.15
#  23   -4.14   -0.70    0.52    2.37   -0.11    0.00    0.00      -2.06    5.79   -0.28
#  24   -3.26   -0.41    0.10    1.67   -0.11    0.00    0.00      -2.02    4.13   -0.28
#  25   -0.99   -0.51    0.30    0.73   -0.07    0.00    0.00      -0.54    2.32   -0.21
#  26   -1.52   -0.77    0.60    0.96   -0.12    0.00    0.00      -0.84    2.34   -0.28
#  27   -0.24   -0.40    0.06    0.69   -0.10    0.00    0.00       0.02    1.86   -0.27
#  28    0.11   -0.69    0.60    0.84   -0.11    0.00    0.00       0.75    1.92   -0.26
#  29    1.78   -0.37    0.09    1.02   -0.09    0.00    0.00       2.43    2.92   -0.27
#  30    0.92   -0.69    0.24    0.76   -0.15    0.00    0.00       1.09    1.36   -0.27
#  31   -0.75   -0.58    0.40    1.05   -0.11    0.00    0.00       0.02    2.59   -0.28
#  32   -0.71   -0.14    0.00    0.27   -0.03    0.00    0.00      -0.59    2.26   -0.21
#  33   -0.99   -0.22    0.04    0.26   -0.05    0.00    0.00      -0.96    1.28   -0.23
#  34   -3.06   -0.68    0.52    1.75   -0.12    0.00    0.00      -1.58    3.95   -0.28
#  35   -3.01   -0.60    0.40    1.77   -0.10    0.00    0.00      -1.54    5.13   -0.28
@<TRIPOS>MOLECULE
E2057227
   35    36     0     0     0
SMALL
USER_CHARGES


@<TRIPOS>ATOM
      1 C1         24.2556   20.4533   60.3266 C.3       1            -0.0582
      2 N1         23.1457   19.7264   59.6960 N.4       1            -0.3847
      3 H1         23.0572   20.0168   58.7338 H         1             0.4318
      4 C2         21.8979   20.0208   60.4128 C.3       1            -0.0028
      5 C3         22.0381   19.5973   61.8766 C.3       1             0.0256
      6 N2         22.3327   18.1589   61.9415 N.3       1            -0.5319
      7 C4         22.4188   17.7014   63.3347 C.3       1             0.0967
      8 C5         22.2288   16.2073   63.3855 C.ar      1            -0.0915
      9 C6         20.9604   15.6761   63.5267 C.ar      1            -0.0406
     10 C7         20.7861   14.3058   63.5738 C.ar      1            -0.0443
     11 C8         21.8801   13.4655   63.4797 C.ar      1            -0.0322
     12 C9         23.1485   13.9953   63.3381 C.ar      1            -0.1071
     13 C10        23.3231   15.3671   63.2852 C.ar      1             0.0313
     14 Cl1        24.9154   16.0333   63.1000 Cl        1            -0.0221
     15 N3         19.4279   13.7376   63.7256 N.pl3     1             0.0275
     16 O1         19.2751   12.5390   63.7667 O.2       1            -0.1508
     17 O2         18.4712   14.4721   63.8082 O.3       1            -0.1389
     18 C11        23.5664   17.8452   61.2069 C.3       1             0.0189
     19 C12        23.4135   18.2831   59.7490 C.3       1            -0.0020
     20 H2         24.3514   20.1397   61.3661 H         1             0.1266
     21 H3         25.1816   20.2354   59.7946 H         1             0.1271
     22 H4         24.0574   21.5245   60.2871 H         1             0.1196
     23 H5         21.6933   21.0902   60.3620 H         1             0.1383
     24 H6         21.0764   19.4716   59.9528 H         1             0.1397
     25 H7         22.8507   20.1563   62.3407 H         1             0.0660
     26 H8         21.1070   19.8021   62.4052 H         1             0.1257
     27 H9         23.3972   17.9573   63.7414 H         1             0.0682
     28 H10        21.6416   18.1867   63.9252 H         1             0.1109
     29 H11        20.1055   16.3319   63.6007 H         1             0.1600
     30 H12        21.7434   12.3948   63.5173 H         1             0.1682
     31 H13        24.0030   13.3389   63.2649 H         1             0.1633
     32 H14        24.4042   18.3753   61.6599 H         1             0.0671
     33 H15        23.7505   16.7715   61.2468 H         1             0.1179
     34 H16        22.5842   17.7428   59.2923 H         1             0.1392
     35 H17        24.3328   18.0641   59.2058 H         1             0.1372
@<TRIPOS>BOND
     1    1    2 1 
     2    1   20 1 
     3    1   21 1 
     4    1   22 1 
     5    2    3 1 
     6    2   19 1 
     7    2    4 1 
     8    4    5 1 
     9    4   23 1 
    10    4   24 1 
    11    5    6 1 
    12    5   25 1 
    13    5   26 1 
    14    6    7 1 
    15    6   18 1 
    16    7    8 1 
    17    7   27 1 
    18    7   28 1 
    19    8   13 ar
    20    8    9 ar
    21    9   10 ar
    22    9   29 1 
    23   10   11 ar
    24   10   15 1 
    25   11   12 ar
    26   11   30 1 
    27   12   13 ar
    28   12   31 1 
    29   13   14 1 
    30   15   16 2 
    31   15   17 1 
    32   18   19 1 
    33   18   32 1 
    34   18   33 1 
    35   19   34 1 
    36   19   35 1 
##########                 Name:            E35687229
##########          Protonation:                   42
##########               SMILES:   c1cc(oc1)C[NH+]2CCN(CC2)Cc3ccc(cc3F)C#N
##########            Long Name:   3-fluoro-4-[[4-(2-furylmethyl)piperazin-4-ium-1-yl]methyl]benzonitrile
##########          FlexRecCode: 1
##########               Number:                  215
##########   Ligand Source File: /raidb/db2/rgc/leads-emolecules-300/leads-emolecules-3-br-0000021.db2.gz
##########           GlobalRank: 3288
##########                 Rank:                    1
##########               Setnum:                  109
##########             Matchnum:                 2404
##########                Cloud:                    1
##########        Electrostatic:           -22.432972
##########        Van der Waals:           -24.259924
##########  Ligand Polar Desolv:             8.708743
########## Ligand Apolar Desolv:            -2.571971
##########      Internal Energy:             0.000000
##########      Receptor Energy: 0.0
########## Receptor Desolvation:             0.000000
########## Receptor Hydrophobic:             0.000000
##########         Total Energy: -40.56
##########        Ligand Charge:             1.000000
##########            Arbitrary:    +999.9990
##########     heavy atom count:   22
##########           pose count:    1
##########        Ligand Energy:             0.000000
# num electro vdwattr vdwrepu polsolv apolsol rdesolv rhydroe totalscore fullpol fullapo
#   1    0.20   -1.07    0.23   -0.96   -0.14    0.00    0.00      -1.74   -2.30   -0.33
#   2    0.05   -1.52    0.26    0.84   -0.12    0.00    0.00      -0.49    1.96   -0.27
#   3   -0.27   -1.70    0.39   -0.77   -0.21    0.00    0.00      -2.56   -1.62   -0.45
#   4    0.10   -1.75    0.65   -0.34   -0.22    0.00    0.00      -1.56   -0.60   -0.40
#   5   -0.45   -2.17    0.96   -0.56   -0.22    0.00    0.00      -2.43   -1.13   -0.45
#   6   -0.29   -2.26    1.26   -0.58   -0.21    0.00    0.00      -2.07   -1.26   -0.45
#   7    0.04   -1.50    0.29   -0.49   -0.16    0.00    0.00      -1.82   -1.12   -0.36
#   8   -0.65   -0.98    0.14    0.78   -0.14    0.00    0.00      -0.85    1.80   -0.32
#   9    8.37   -1.35    0.13   -6.46    1.60    0.00    0.00       2.28  -13.69    3.38
#  10   -0.36   -1.15    0.24    0.09   -0.17    0.00    0.00      -1.34    0.22   -0.40
#  11    0.97   -0.83    0.17   -0.32   -0.09    0.00    0.00      -0.11   -0.95   -0.28
#  12    9.12   -1.60    1.22   -3.79    0.09    0.00    0.00       5.05  -11.21    0.28
#  13  -15.51   -0.12    0.04    5.06    0.19    0.00    0.00     -10.34   14.24    0.53
#  14   -1.29   -0.66    0.18    0.81   -0.10    0.00    0.00      -1.06    3.21   -0.39
#  15    1.08   -1.09    0.32   -0.39   -0.07    0.00    0.00      -0.16   -1.47   -0.28
#  16    1.07   -2.12    1.10   -1.27   -0.15    0.00    0.00      -1.37   -3.71   -0.43
#  17    1.11   -1.22    0.17   -1.53   -0.18    0.00    0.00      -1.64   -4.34   -0.51
#  18   -0.06   -0.86    0.07   -0.25   -0.08    0.00    0.00      -1.18   -0.80   -0.27
#  19    0.61   -0.50    0.02   -0.84    0.06    0.00    0.00      -0.65   -3.62    0.25
#  20    1.24   -1.26    0.52   -0.48   -0.13    0.00    0.00      -0.12   -1.30   -0.35
#  21   -0.82   -1.47    0.43    0.47   -0.20    0.00    0.00      -1.59    1.03   -0.44
#  22    0.90   -2.05    0.34    1.15   -0.91    0.00    0.00      -0.56    1.85   -1.46
#  23   -0.39   -3.60    1.41   -0.61    0.47    0.00    0.00      -2.73   -0.92    0.71
#  24    0.41   -0.43    0.15    0.76   -0.11    0.00    0.00       0.79    1.93   -0.28
#  25    1.11   -0.63    0.33    0.86   -0.13    0.00    0.00       1.54    1.89   -0.28
#  26    0.24   -0.68    0.93    1.52   -0.11    0.00    0.00       1.89    3.79   -0.28
#  27   -0.85   -0.63    0.26    1.33   -0.11    0.00    0.00       0.00    3.20   -0.27
#  28   -0.47   -0.21    0.01    0.77   -0.05    0.00    0.00       0.05    2.91   -0.18
#  29   -1.80   -0.50    0.33    0.62   -0.05    0.00    0.00      -1.40    1.83   -0.16
#  30   -2.98   -0.66    0.27    1.40   -0.13    0.00    0.00      -2.10    2.97   -0.28
#  31   -1.69   -0.13    0.00    0.53   -0.02    0.00    0.00      -1.31    4.44   -0.18
#  32   -2.69   -0.36    0.12    1.45   -0.07    0.00    0.00      -1.55    5.50   -0.28
#  33   -1.31   -0.11    0.00    0.79   -0.03    0.00    0.00      -0.67    6.54   -0.28
#  34   -1.85   -0.19    0.04    0.80   -0.04    0.00    0.00      -1.23    5.52   -0.28
#  35   -2.63   -1.13    1.60    1.81   -0.11    0.00    0.00      -0.46    4.69   -0.28
#  36   -0.83   -0.27    0.05    0.50   -0.07    0.00    0.00      -0.63    1.97   -0.28
#  37   -0.35   -0.20    0.02    0.78   -0.06    0.00    0.00       0.19    3.57   -0.28
#  38   -2.17   -0.50    0.41    1.35   -0.06    0.00    0.00      -0.98    5.22   -0.23
#  39   -3.35   -0.47    0.25    1.28   -0.07    0.00    0.00      -2.36    4.06   -0.21
#  40   -3.33   -0.99    1.48    1.20   -0.12    0.00    0.00      -1.75    2.85   -0.28
#  41   -2.64   -0.79    0.65    1.41   -0.13    0.00    0.00      -1.50    3.12   -0.28
@<TRIPOS>MOLECULE
E35687229
   41    43     0     0     0
SMALL
USER_CHARGES


@<TRIPOS>ATOM
      1 F1         23.5405   16.7572   63.7959 F         1            -0.1389
      2 C1         22.3133   16.3645   63.3898 C.ar      1             0.0932
      3 C2         21.8638   15.0913   63.6842 C.ar      1            -0.1002
      4 C3         20.5952   14.6883   63.2634 C.ar      1             0.0214
      5 C4         19.7891   15.5758   62.5472 C.ar      1            -0.0706
      6 C5         20.2493   16.8439   62.2597 C.ar      1            -0.0663
      7 C6         21.5050   17.2408   62.6838 C.ar      1            -0.0963
      8 C7         21.9979   18.6302   62.3716 C.3       1             0.0802
      9 N1         21.6979   18.9528   60.9702 N.3       1            -0.5188
     10 C8         22.6333   18.2749   60.0617 C.3       1             0.0183
     11 C9         24.0448   18.8214   60.2867 C.3       1            -0.0511
     12 N2         24.0550   20.2688   60.0369 N.4       1            -0.3820
     13 H1         23.7617   20.4484   59.0884 H         1             0.4255
     14 C10        25.4140   20.7901   60.2358 C.3       1             0.0912
     15 C11        25.5521   22.1147   59.5307 C.2       1            -0.1103
     16 C12        24.5872   22.7374   58.8301 C.2       1            -0.1412
     17 C13        25.1462   23.9418   58.3443 C.2       1            -0.2194
     18 C14        26.4191   23.9830   58.7769 C.2       1             0.0172
     19 O1         26.6577   22.8766   59.4999 O.3       1            -0.1673
     20 C15        23.1347   20.9347   60.9681 C.3       1            -0.0560
     21 C16        21.7156   20.4057   60.7486 C.3       1             0.0344
     22 C17        20.1229   13.3705   63.5643 C.1       1             0.2343
     23 N3         19.7480   12.3250   63.8030 N.1       1            -0.3781
     24 H2         22.4922   14.4097   64.2382 H         1             0.1514
     25 H3         18.8069   15.2695   62.2187 H         1             0.1488
     26 H4         19.6261   17.5303   61.7059 H         1             0.1505
     27 H5         21.5002   19.3476   63.0241 H         1             0.1105
     28 H6         23.0748   18.6785   62.5329 H         1             0.0543
     29 H7         22.6221   17.2033   60.2614 H         1             0.1317
     30 H8         22.3335   18.4559   59.0294 H         1             0.1067
     31 H9         24.3496   18.6281   61.3152 H         1             0.1375
     32 H10        24.7379   18.3299   59.6040 H         1             0.1417
     33 H11        25.5991   20.9248   61.3015 H         1             0.1523
     34 H12        26.1374   20.0841   59.8278 H         1             0.1463
     35 H13        23.5792   22.3848   58.6693 H         1             0.1602
     36 H14        24.6470   24.6857   57.7412 H         1             0.1643
     37 H15        27.1279   24.7738   58.5797 H         1             0.2192
     38 H16        23.4441   20.7306   61.9931 H         1             0.1301
     39 H17        23.1530   22.0100   60.7904 H         1             0.1392
     40 H18        21.4006   20.6218   59.7277 H         1             0.1079
     41 H19        21.0349   20.8888   61.4496 H         1             0.1282
@<TRIPOS>BOND
     1    1    2 1 
     2    2    7 ar
     3    2    3 ar
     4    3    4 ar
     5    3   24 1 
     6    4    5 ar
     7    4   22 1 
     8    5    6 ar
     9    5   25 1 
    10    6    7 ar
    11    6   26 1 
    12    7    8 1 
    13    8    9 1 
    14    8   27 1 
    15    8   28 1 
    16    9   21 1 
    17    9   10 1 
    18   10   11 1 
    19   10   29 1 
    20   10   30 1 
    21   11   12 1 
    22   11   31 1 
    23   11   32 1 
    24   12   13 1 
    25   12   14 1 
    26   12   20 1 
    27   14   15 1 
    28   14   33 1 
    29   14   34 1 
    30   15   19 1 
    31   15   16 2 
    32   16   17 1 
    33   16   35 1 
    34   17   18 2 
    35   17   36 1 
    36   18   19 1 
    37   18   37 1 
    38   20   21 1 
    39   20   38 1 
    40   20   39 1 
    41   21   40 1 
    42   21   41 1 
    43   22   23 3 
##########                 Name:            E31616815
##########          Protonation:                  100
##########               SMILES:   CCCCC[NH+]1CC[C@@H](CC1)Cn2nnc(c2)COC
##########            Long Name:   4-[[4-(methoxymethyl)triazol-1-yl]methyl]-1-pentyl-piperidin-1-ium
##########          FlexRecCode: 1
##########               Number:                   59
##########   Ligand Source File: /raidb/db2/rgc/leads-emolecules-300/leads-lt300-emolecules-1j-0000218.db2.gz
##########           GlobalRank: 3288
##########                 Rank:                    1
##########               Setnum:                  158
##########             Matchnum:                 3700
##########                Cloud:                    1
##########        Electrostatic:           -23.408981
##########        Van der Waals:           -22.293116
##########  Ligand Polar Desolv:             7.087445
########## Ligand Apolar Desolv:            -1.945932
##########      Internal Energy:             0.000000
##########      Receptor Energy: 0.0
########## Receptor Desolvation:             0.000000
########## Receptor Hydrophobic:             0.000000
##########         Total Energy: -40.56
##########        Ligand Charge:             1.000000
##########            Arbitrary:    +999.9990
##########     heavy atom count:   20
##########           pose count:    1
##########        Ligand Energy:             0.000000
# num electro vdwattr vdwrepu polsolv apolsol rdesolv rhydroe totalscore fullpol fullapo
#   1   -0.11   -0.97    0.17   -0.96   -0.08    0.00    0.00      -1.95   -2.18   -0.19
#   2    0.14   -0.63    0.06   -0.76   -0.09    0.00    0.00      -1.27   -2.18   -0.25
#   3    0.18   -0.36    0.01   -0.56   -0.05    0.00    0.00      -0.78   -2.58   -0.22
#   4    1.02   -0.59    0.11   -0.94   -0.05    0.00    0.00      -0.46   -3.82   -0.21
#   5    0.21   -0.47    0.06   -0.06   -0.06    0.00    0.00      -0.31   -0.27   -0.28
#   6    7.83   -1.40    1.14   -3.35    0.13    0.00    0.00       4.34  -11.31    0.43
#   7  -15.65   -0.17    0.10    4.77    0.16    0.00    0.00     -10.79   16.45    0.56
#   8    0.19   -0.99    0.21   -0.02   -0.14    0.00    0.00      -0.74   -0.05   -0.39
#   9    3.56   -1.37    0.42   -1.59   -0.09    0.00    0.00       0.94   -3.73   -0.21
#  10    1.95   -0.77    0.05   -1.01   -0.07    0.00    0.00       0.15   -2.31   -0.16
#  11   -1.16   -0.91    0.09    0.64   -0.18    0.00    0.00      -1.53    1.54   -0.44
#  12    0.75   -1.37    0.15   -1.39    0.39    0.00    0.00      -1.47   -3.21    0.90
#  13   -0.05   -1.72    0.51    0.01   -0.41    0.00    0.00      -1.65    0.03   -0.94
#  14   -0.08   -1.62    0.41   -0.27   -0.35    0.00    0.00      -1.91   -0.60   -0.79
#  15    0.84   -1.12    0.24    0.59   -0.07    0.00    0.00       0.48    1.03   -0.13
#  16   -1.34   -1.76    0.42   -1.93    0.79    0.00    0.00      -3.81   -3.13    1.29
#  17    0.06   -2.45    0.97    0.14    0.01    0.00    0.00      -1.27    0.21    0.02
#  18   -0.74   -2.07    0.70   -0.71    0.54    0.00    0.00      -2.28   -1.56    1.20
#  19    0.00   -1.91    0.40   -0.42    0.22    0.00    0.00      -1.71   -0.95    0.49
#  20    2.61   -0.96    0.19   -1.38   -0.08    0.00    0.00       0.37   -3.73   -0.21
#  21    0.05   -0.62    0.08    0.16   -0.12    0.00    0.00      -0.44    0.56   -0.42
#  22    0.03   -0.44    0.08    0.05   -0.12    0.00    0.00      -0.41    0.12   -0.28
#  23    0.07   -0.46    0.36    0.21   -0.09    0.00    0.00       0.09    0.62   -0.28
#  24    0.07   -0.23    0.03    0.12   -0.07    0.00    0.00      -0.08    0.51   -0.28
#  25   -0.14   -0.18    0.02    0.20   -0.05    0.00    0.00      -0.15    1.08   -0.28
#  26   -0.11   -0.37    0.17    0.24   -0.08    0.00    0.00      -0.15    0.88   -0.28
#  27   -0.01   -0.09    0.00    0.13   -0.03    0.00    0.00       0.00    1.26   -0.28
#  28   -0.02   -0.09    0.00    0.15   -0.03    0.00    0.00       0.01    1.60   -0.28
#  29   -0.69   -0.15    0.01    0.50   -0.04    0.00    0.00      -0.36    3.08   -0.22
#  30   -0.59   -0.48    0.36    0.72   -0.07    0.00    0.00      -0.06    2.76   -0.28
#  31   -0.95   -0.10    0.01    0.48   -0.03    0.00    0.00      -0.59    4.77   -0.28
#  32   -0.79   -0.10    0.00    0.44   -0.01    0.00    0.00      -0.46    4.40   -0.15
#  33   -2.18   -0.40    0.23    1.33   -0.05    0.00    0.00      -1.07    5.43   -0.21
#  34   -2.82   -0.33    0.07    1.24   -0.08    0.00    0.00      -1.91    4.37   -0.28
#  35   -2.37   -0.52    0.18    1.51   -0.09    0.00    0.00      -1.30    3.78   -0.22
#  36   -3.87   -1.06    2.08    1.13   -0.12    0.00    0.00      -1.84    2.62   -0.28
#  37   -1.72   -0.26    0.02    0.43   -0.09    0.00    0.00      -1.63    1.27   -0.28
#  38   -1.01   -0.24    0.02    1.08   -0.07    0.00    0.00      -0.23    4.08   -0.28
#  39   -1.15   -0.58    0.21    0.82   -0.11    0.00    0.00      -0.81    2.06   -0.28
#  40    0.18   -0.41    0.17    1.33   -0.10    0.00    0.00       1.16    3.60   -0.28
#  41    0.61   -0.28    0.02    0.11   -0.10    0.00    0.00       0.35    0.30   -0.28
#  42    0.44   -0.50    0.19    0.22   -0.12    0.00    0.00       0.23    0.51   -0.28
#  43    0.09   -1.30    1.05    0.80   -0.19    0.00    0.00       0.46    1.19   -0.28
#  44    0.00   -0.89    0.70    0.24   -0.17    0.00    0.00      -0.13    0.40   -0.28
#  45    0.17   -0.93    0.62    0.36   -0.18    0.00    0.00       0.04    0.55   -0.28
#  46   -1.10   -0.29    0.08    0.88   -0.05    0.00    0.00      -0.48    3.52   -0.21
#  47   -2.76   -0.66    0.39    0.18   -0.11    0.00    0.00      -2.97    0.42   -0.27
#  48   -1.67   -0.17    0.02    0.64   -0.05    0.00    0.00      -1.24    3.82   -0.28
#  49   -1.40   -0.13    0.01    0.61   -0.03    0.00    0.00      -0.96    4.87   -0.28
@<TRIPOS>MOLECULE
E31616815
   49    50     0     0     0
SMALL
USER_CHARGES


@<TRIPOS>ATOM
      1 C1         28.8665   24.8924   59.0206 C.3       1            -0.1588
      2 C2         27.5453   24.1714   58.7455 C.3       1            -0.1253
      3 C3         27.4296   22.9518   59.6621 C.3       1            -0.1180
      4 C4         26.1086   22.2306   59.3872 C.3       1            -0.1480
      5 C5         25.9928   21.0110   60.3036 C.3       1            -0.0215
      6 N1         24.7244   20.3187   60.0396 N.4       1            -0.3812
      7 H1         24.5478   20.3115   59.0462 H         1             0.4282
      8 C6         23.6335   21.0246   60.7227 C.3       1            -0.0090
      9 C7         22.2992   20.3481   60.4016 C.3       1            -0.1413
     10 C8         22.3461   18.8946   60.8803 C.3       1            -0.1154
     11 C9         22.5380   18.8604   62.3978 C.3       1             0.1221
     12 N2         22.1149   17.5563   62.9141 N.pl3     1            -0.3023
     13 C10        20.9869   16.8942   62.5671 C.2       1            -0.0228
     14 C11        20.9928   15.7416   63.2768 C.2       1            -0.0176
     15 C12        19.9475   14.6567   63.2432 C.3       1             0.1456
     16 O1         20.5870   13.3812   63.1658 O.3       1            -0.3943
     17 C13        19.6801   12.2775   63.1285 C.3       1             0.0327
     18 N3         22.1094   15.7548   64.0135 N.2       1            -0.2502
     19 N4         22.7550   16.8408   63.7716 N.2       1            -0.0820
     20 C14        23.5206   18.1880   60.1982 C.3       1            -0.1463
     21 C15        24.8136   18.9370   60.5277 C.3       1            -0.0034
     22 H2         28.9489   25.7613   58.3676 H         1             0.0616
     23 H3         28.8940   25.2159   60.0610 H         1             0.0568
     24 H4         29.6976   24.2138   58.8289 H         1             0.0572
     25 H5         26.7142   24.8500   58.9371 H         1             0.0652
     26 H6         27.5179   23.8478   57.7050 H         1             0.0657
     27 H7         28.2608   22.2731   59.4705 H         1             0.0736
     28 H8         27.4572   23.2754   60.7026 H         1             0.0724
     29 H9         25.2774   22.9093   59.5788 H         1             0.0867
     30 H10        26.0809   21.9071   58.3467 H         1             0.0870
     31 H11        26.8240   20.3324   60.1120 H         1             0.1308
     32 H12        26.0204   21.3345   61.3441 H         1             0.1326
     33 H13        23.8030   20.9988   61.7990 H         1             0.1361
     34 H14        23.6050   22.0607   60.3854 H         1             0.1334
     35 H15        21.4918   20.8740   60.9113 H         1             0.0947
     36 H16        22.1281   20.3720   59.3252 H         1             0.1193
     37 H17        21.4144   18.3932   60.6183 H         1             0.1113
     38 H18        23.5897   19.0210   62.6348 H         1             0.1114
     39 H19        21.9377   19.6453   62.8578 H         1             0.1107
     40 H20        20.2334   17.2200   61.8654 H         1             0.1968
     41 H21        19.3435   14.7060   64.1492 H         1             0.0758
     42 H22        19.3075   14.7957   62.3719 H         1             0.0745
     43 H23        20.2434   11.3462   63.0700 H         1             0.0927
     44 H24        19.0705   12.2774   64.0322 H         1             0.0486
     45 H25        19.0344   12.3672   62.2548 H         1             0.0473
     46 H26        23.5902   17.1629   60.5621 H         1             0.0925
     47 H27        23.3660   18.1828   59.1193 H         1             0.1081
     48 H28        25.6540   18.4361   60.0468 H         1             0.1329
     49 H29        24.9652   18.9430   61.6071 H         1             0.1331
@<TRIPOS>BOND
     1    1    2 1 
     2    1   22 1 
     3    1   23 1 
     4    1   24 1 
     5    2    3 1 
     6    2   25 1 
     7    2   26 1 
     8    3    4 1 
     9    3   27 1 
    10    3   28 1 
    11    4    5 1 
    12    4   29 1 
    13    4   30 1 
    14    5    6 1 
    15    5   31 1 
    16    5   32 1 
    17    6    7 1 
    18    6   21 1 
    19    6    8 1 
    20    8    9 1 
    21    8   33 1 
    22    8   34 1 
    23    9   10 1 
    24    9   35 1 
    25    9   36 1 
    26   10   11 1 
    27   10   20 1 
    28   10   37 1 
    29   11   12 1 
    30   11   38 1 
    31   11   39 1 
    32   12   19 1 
    33   12   13 1 
    34   13   14 2 
    35   13   40 1 
    36   14   15 1 
    37   14   18 1 
    38   15   16 1 
    39   15   41 1 
    40   15   42 1 
    41   16   17 1 
    42   17   43 1 
    43   17   44 1 
    44   17   45 1 
    45   18   19 2 
    46   20   21 1 
    47   20   46 1 
    48   20   47 1 
    49   21   48 1 
    50   21   49 1 
##########                 Name:            E36261430
##########          Protonation:                   20
##########               SMILES:   COc1ccc(cc1C(=O)OCc2nc(nc(n2)N)N)F
##########            Long Name:   (4,6-diamino-1,3,5-triazin-2-yl)methyl
##########          FlexRecCode: 1
##########               Number:                  698
##########   Ligand Source File: /raidb/db2/rgc/leads-emolecules-300/leads-emolecules-2f-0000172.db2.gz
##########           GlobalRank: 3306
##########                 Rank:                    1
##########               Setnum:                  323
##########             Matchnum:                 3997
##########                Cloud:                    1
##########        Electrostatic:           -12.782361
##########        Van der Waals:           -30.605865
##########  Ligand Polar Desolv:             6.464359
########## Ligand Apolar Desolv:            -3.623714
##########      Internal Energy:             0.000000
##########      Receptor Energy: 0.0
########## Receptor Desolvation:             0.000000
########## Receptor Hydrophobic:             0.000000
##########         Total Energy: -40.55
##########        Ligand Charge:             0.000000
##########            Arbitrary:    +999.9990
##########     heavy atom count:   21
##########           pose count:    1
##########        Ligand Energy:             0.000000
# num electro vdwattr vdwrepu polsolv apolsol rdesolv rhydroe totalscore fullpol fullapo
#   1   -0.07   -0.90    0.13    0.00    0.01    0.00    0.00      -0.82    0.00    0.03
#   2   -1.84   -1.77    0.78    0.39    0.17    0.00    0.00      -2.27    0.87    0.37
#   3    0.99   -1.62    0.38   -0.14   -0.14    0.00    0.00      -0.54   -0.31   -0.31
#   4   -0.31   -1.66    0.54   -0.20   -0.19    0.00    0.00      -1.82   -0.44   -0.42
#   5   -0.17   -2.06    0.50   -0.07   -0.25    0.00    0.00      -2.04   -0.13   -0.46
#   6    0.20   -2.53    0.71   -0.02   -0.21    0.00    0.00      -1.85   -0.03   -0.34
#   7   -0.81   -3.44    2.75    0.25   -0.32    0.00    0.00      -1.58    0.37   -0.48
#   8   -0.26   -2.06    0.44    0.09   -0.27    0.00    0.00      -2.05    0.15   -0.44
#   9   -1.05   -1.59    0.20    0.37   -0.23    0.00    0.00      -2.30    0.67   -0.41
#  10    6.80   -2.03    0.40   -1.81   -0.09    0.00    0.00       3.26   -3.15   -0.16
#  11  -10.31   -2.89    1.64    2.53   -0.33    0.00    0.00      -9.37    4.31   -0.57
#  12   -3.76   -3.88    3.50    1.14    0.17    0.00    0.00      -2.83    1.95    0.29
#  13    1.65   -3.18    2.44   -0.41   -0.07    0.00    0.00       0.43   -0.68   -0.12
#  14    5.76   -3.00    1.70   -1.41   -1.21    0.00    0.00       1.83   -2.39   -2.05
#  15   -7.72   -2.66    0.72    2.19    1.27    0.00    0.00      -6.21    3.50    2.03
#  16    8.00   -2.36    0.47   -1.61   -3.32    0.00    0.00       1.19   -2.42   -4.98
#  17   -9.03   -3.38    1.86   -0.27    0.63    0.00    0.00     -10.18   -0.40    0.95
#  18   -6.79   -3.15    1.15    1.85    1.40    0.00    0.00      -5.55    2.80    2.12
#  19    5.05   -3.03    0.91   -1.58   -3.26    0.00    0.00      -1.90   -2.42   -4.98
#  20   -0.57   -5.03    2.22   -0.28    0.66    0.00    0.00      -3.00   -0.40    0.95
#  21   -6.76   -2.74    1.13    2.30    1.34    0.00    0.00      -4.73    3.50    2.03
#  22   -0.52   -0.30    0.06    0.14   -0.08    0.00    0.00      -0.70    0.47   -0.26
#  23   -0.15   -0.27    0.03    0.15   -0.09    0.00    0.00      -0.33    0.47   -0.26
#  24   -0.75   -0.25    0.06    0.08   -0.06    0.00    0.00      -0.92    0.39   -0.28
#  25   -0.18   -0.24    0.04    0.33   -0.05    0.00    0.00      -0.11    1.32   -0.21
#  26    0.03   -0.47    0.13    0.50   -0.12    0.00    0.00       0.05    1.11   -0.28
#  27    0.45   -0.62    0.30   -0.22   -0.13    0.00    0.00      -0.23   -0.44   -0.26
#  28    0.84   -1.23    1.32   -0.27   -0.17    0.00    0.00       0.48   -0.44   -0.28
#  29    1.40   -1.76    3.39   -0.28   -0.18    0.00    0.00       2.58   -0.44   -0.28
#  30    4.27   -0.11    0.02    0.57    0.34    0.00    0.00       5.09    0.99    0.60
#  31    4.45   -0.08    0.00    0.74    0.38    0.00    0.00       5.50    1.17    0.60
#  32   -1.40   -0.16    0.02    0.80    0.41    0.00    0.00      -0.33    1.17    0.60
#  33   -0.24   -0.07    0.00    0.63    0.38    0.00    0.00       0.70    0.99    0.60
@<TRIPOS>MOLECULE
E36261430
   33    34     0     0     0
SMALL
USER_CHARGES


@<TRIPOS>ATOM
      1 C1         21.7507   17.6786   62.4607 C.3       1             0.0180
      2 O1         20.5801   16.9715   62.8752 O.3       1            -0.2803
      3 C2         20.7503   15.6946   63.3012 C.ar      1             0.1858
      4 C3         22.0178   15.1322   63.3266 C.ar      1            -0.1940
      5 C4         22.1906   13.8329   63.7597 C.ar      1            -0.0715
      6 C5         21.1007   13.0800   64.1722 C.ar      1             0.0488
      7 F1         21.2815   11.8093   64.5941 F         1            -0.1338
      8 C6         19.8330   13.6240   64.1538 C.ar      1            -0.0561
      9 C7         19.6464   14.9406   63.7228 C.ar      1            -0.1350
     10 C8         18.2957   15.5305   63.7056 C.2       1             0.5171
     11 O2         18.0582   16.5239   64.3639 O.2       1            -0.4752
     12 O3         17.3245   14.9681   62.9599 O.3       1            -0.3421
     13 C9         16.0395   15.5926   62.9907 C.3       1             0.1431
     14 C10        15.5155   15.5945   64.4036 C.ar      1             0.4334
     15 N1         14.3323   16.1208   64.6671 N.ar      1            -0.6201
     16 C11        13.8662   16.1243   65.9139 C.ar      1             0.6336
     17 N2         12.6304   16.6738   66.1879 N.pl3     1            -0.8025
     18 N3         14.5922   15.5977   66.8941 N.ar      1            -0.6499
     19 C12        15.7811   15.0693   66.6253 C.ar      1             0.6336
     20 N4         16.5388   14.5212   67.6399 N.pl3     1            -0.8025
     21 N5         16.2381   15.0649   65.3751 N.ar      1            -0.6201
     22 H1         21.4747   18.6847   62.1450 H         1             0.0610
     23 H2         22.4526   17.7385   63.2925 H         1             0.0610
     24 H3         22.2177   17.1519   61.6284 H         1             0.1081
     25 H4         22.8711   15.7119   63.0066 H         1             0.1509
     26 H5         23.1797   13.3998   63.7771 H         1             0.1478
     27 H6         18.9867   13.0349   64.4753 H         1             0.1565
     28 H7         16.1256   16.6188   62.6336 H         1             0.1033
     29 H8         15.3521   15.0412   62.3490 H         1             0.1033
     30 H9         12.1008   17.0579   65.4718 H         1             0.4203
     31 H10        12.2913   16.6759   67.0968 H         1             0.4186
     32 H11        16.2035   14.5213   68.5500 H         1             0.4186
     33 H12        17.4069   14.1356   67.4430 H         1             0.4203
@<TRIPOS>BOND
     1    1    2 1 
     2    1   22 1 
     3    1   23 1 
     4    1   24 1 
     5    2    3 1 
     6    3    9 ar
     7    3    4 ar
     8    4    5 ar
     9    4   25 1 
    10    5    6 ar
    11    5   26 1 
    12    6    7 1 
    13    6    8 ar
    14    8    9 ar
    15    8   27 1 
    16    9   10 1 
    17   10   11 2 
    18   10   12 1 
    19   12   13 1 
    20   13   14 1 
    21   13   28 1 
    22   13   29 1 
    23   14   21 ar
    24   14   15 ar
    25   15   16 ar
    26   16   17 1 
    27   16   18 ar
    28   17   30 1 
    29   17   31 1 
    30   18   19 ar
    31   19   20 1 
    32   19   21 ar
    33   20   32 1 
    34   20   33 1 
##########                 Name:             E2350274
##########          Protonation:                   47
##########               SMILES:   COc1ccc(cc1)CN2CC[NH+](CC2)CCOCCO
##########            Long Name:   2-[2-[4-[(4-methoxyphenyl)methyl]piperazin-1-ium-1-yl]ethoxy]ethanol
##########          FlexRecCode: 1
##########               Number:                   89
##########   Ligand Source File: /raidb/db2/rgc/leads-emolecules-300/leads-emolecules-2g-0000165.db2.gz
##########           GlobalRank: 3336
##########                 Rank:                    1
##########               Setnum:                   23
##########             Matchnum:                 7000
##########                Cloud:                    1
##########        Electrostatic:           -28.850620
##########        Van der Waals:           -20.071671
##########  Ligand Polar Desolv:             9.169182
########## Ligand Apolar Desolv:            -0.775963
##########      Internal Energy:             0.000000
##########      Receptor Energy: 0.0
########## Receptor Desolvation:             0.000000
########## Receptor Hydrophobic:             0.000000
##########         Total Energy: -40.53
##########        Ligand Charge:             1.000000
##########            Arbitrary:    +999.9990
##########     heavy atom count:   21
##########           pose count:    1
##########        Ligand Energy:             0.000000
# num electro vdwattr vdwrepu polsolv apolsol rdesolv rhydroe totalscore fullpol fullapo
#   1    0.13   -3.43    2.56    0.09    0.02    0.00    0.00      -0.63    0.14    0.03
#   2   -1.12   -1.72    0.20   -1.00    0.58    0.00    0.00      -3.05   -1.59    0.93
#   3    0.53   -1.73    0.42    0.13   -0.18    0.00    0.00      -0.82    0.23   -0.31
#   4   -1.40   -1.67    0.35   -1.21   -0.21    0.00    0.00      -4.14   -2.50   -0.43
#   5   -0.35   -1.98    0.68   -0.42   -0.17    0.00    0.00      -2.24   -0.94   -0.37
#   6    0.08   -1.48    0.22   -0.70   -0.14    0.00    0.00      -2.02   -1.65   -0.34
#   7   -0.43   -1.07    0.17    0.84   -0.13    0.00    0.00      -0.63    2.06   -0.33
#   8    5.20   -0.89    0.04   -4.54    1.22    0.00    0.00       1.03  -12.60    3.38
#   9   -0.30   -0.52    0.03    0.15   -0.12    0.00    0.00      -0.76    0.55   -0.43
#  10    1.02   -0.89    0.35   -0.34   -0.10    0.00    0.00       0.04   -1.16   -0.35
#  11   10.61   -2.45    3.59   -4.11    0.10    0.00    0.00       7.74  -11.06    0.28
#  12  -19.84   -0.34    0.39    5.28    0.20    0.00    0.00     -14.31   13.26    0.51
#  13    0.03   -1.08    0.26    0.23   -0.13    0.00    0.00      -0.70    0.66   -0.38
#  14   -0.35   -0.62    0.07    0.05   -0.03    0.00    0.00      -0.88    0.17   -0.12
#  15    3.13   -1.56    0.72   -2.71    0.37    0.00    0.00      -0.05   -8.44    1.15
#  16   -0.29   -0.72    0.12    0.35   -0.04    0.00    0.00      -0.58    1.14   -0.13
#  17   -0.12   -0.56    0.09    0.19   -0.03    0.00    0.00      -0.44    0.79   -0.14
#  18    0.19   -1.73    1.15   -2.20    0.49    0.00    0.00      -2.09   -7.27    1.62
#  19    1.21   -1.24    0.28   -0.37   -0.17    0.00    0.00      -0.27   -0.82   -0.37
#  20   -0.44   -0.73    0.05    0.32   -0.19    0.00    0.00      -0.99    0.75   -0.44
#  21    0.04   -1.54    0.30   -0.37   -0.20    0.00    0.00      -1.77   -0.87   -0.46
#  22   -0.14   -1.93    0.58   -0.70   -0.23    0.00    0.00      -2.42   -1.39   -0.46
#  23   -0.09   -1.87    3.26    0.55   -0.18    0.00    0.00       1.67    0.83   -0.27
#  24    0.37   -1.36    1.59    0.46   -0.17    0.00    0.00       0.89    0.74   -0.27
#  25    0.85   -1.30    1.21    0.54   -0.17    0.00    0.00       1.14    0.89   -0.28
#  26    1.47   -0.30    0.03    0.65   -0.08    0.00    0.00       1.77    1.88   -0.22
#  27    0.81   -0.67    0.58    1.65   -0.10    0.00    0.00       2.27    4.48   -0.27
#  28   -0.38   -0.48    0.09    0.75   -0.12    0.00    0.00      -0.14    1.75   -0.27
#  29   -0.25   -0.64    0.50    0.94   -0.05    0.00    0.00       0.50    2.98   -0.17
#  30   -1.20   -0.21    0.02    0.34   -0.04    0.00    0.00      -1.08    1.72   -0.20
#  31   -0.85   -0.16    0.02    0.33   -0.04    0.00    0.00      -0.70    2.48   -0.28
#  32   -1.86   -0.20    0.05    0.72   -0.03    0.00    0.00      -1.32    4.91   -0.21
#  33   -2.50   -0.36    0.13    1.29   -0.06    0.00    0.00      -1.50    5.02   -0.22
#  34   -4.07   -0.66    0.50    1.58   -0.10    0.00    0.00      -2.75    4.25   -0.28
#  35   -2.56   -0.40    0.24    1.61   -0.07    0.00    0.00      -1.18    6.23   -0.28
#  36   -0.80   -0.15    0.01    0.23   -0.04    0.00    0.00      -0.75    1.58   -0.28
#  37   -0.64   -0.11    0.00    0.31   -0.02    0.00    0.00      -0.45    3.11   -0.23
#  38   -0.27   -0.40    0.21    0.12   -0.08    0.00    0.00      -0.42    0.41   -0.28
#  39   -0.26   -0.13    0.00    0.31   -0.04    0.00    0.00      -0.11    2.28   -0.28
#  40    0.04   -0.16    0.02    0.13   -0.04    0.00    0.00      -0.01    0.89   -0.28
#  41   -0.12   -0.08    0.00    0.09   -0.02    0.00    0.00      -0.12    1.24   -0.28
#  42   -3.61   -0.04    0.00    1.53    0.33    0.00    0.00      -1.79    5.78    1.24
#  43   -3.58   -0.59    0.39    1.92   -0.09    0.00    0.00      -1.95    4.78   -0.23
#  44   -3.44   -0.50    0.14    2.21   -0.12    0.00    0.00      -1.71    5.23   -0.28
#  45   -1.03   -0.23    0.02    0.68   -0.07    0.00    0.00      -0.63    2.58   -0.28
#  46   -1.92   -0.35    0.08    0.74   -0.09    0.00    0.00      -1.53    2.43   -0.28
#  47   -0.34   -0.24    0.02    0.40   -0.07    0.00    0.00      -0.23    1.56   -0.28
#  48   -0.04   -0.51    0.15    0.09   -0.13    0.00    0.00      -0.44    0.20   -0.28
@<TRIPOS>MOLECULE
E2350274
   48    49     0     0     0
SMALL
USER_CHARGES


@<TRIPOS>ATOM
      1 C1         20.9818   11.8955   63.6063 C.3       1             0.0250
      2 O1         20.3170   13.1579   63.6860 O.3       1            -0.3131
      3 C2         21.0908   14.2703   63.5828 C.ar      1             0.1423
      4 C3         20.5118   15.5288   63.6574 C.ar      1            -0.2085
      5 C4         21.3006   16.6581   63.5527 C.ar      1            -0.0792
      6 C5         22.6660   16.5349   63.3733 C.ar      1            -0.1376
      7 C6         23.5240   17.7684   63.2590 C.3       1             0.0914
      8 N1         23.6223   18.1677   61.8487 N.3       1            -0.5199
      9 C7         24.8318   18.9676   61.6109 C.3       1             0.0277
     10 C8         24.9297   19.3045   60.1216 C.3       1            -0.0559
     11 N2         23.7371   20.0569   59.7101 N.4       1            -0.3781
     12 H1         23.8066   20.2872   58.7303 H         1             0.4310
     13 C9         23.6427   21.2932   60.4977 C.3       1            -0.0014
     14 C10        24.8908   22.1457   60.2602 C.3       1             0.0286
     15 O2         24.9881   22.4714   58.8722 O.3       1            -0.3920
     16 C11        26.1258   23.2701   58.5411 C.3       1             0.0648
     17 C12        27.4039   22.5190   58.9191 C.3       1             0.0744
     18 O3         27.4620   21.2856   58.1998 O.3       1            -0.5700
     19 C13        22.5372   19.2402   59.9364 C.3       1            -0.0498
     20 C14        22.4227   18.9029   61.4246 C.3       1             0.0315
     21 C15        23.2455   15.2817   63.2992 C.ar      1            -0.0506
     22 C16        22.4618   14.1494   63.4085 C.ar      1            -0.1479
     23 H2         20.2504   11.0931   63.7028 H         1             0.0572
     24 H3         21.4883   11.8117   62.6449 H         1             0.0579
     25 H4         21.7135   11.8188   64.4104 H         1             0.1064
     26 H5         19.4452   15.6257   63.7968 H         1             0.1311
     27 H6         20.8503   17.6380   63.6106 H         1             0.1148
     28 H7         23.0755   18.5777   63.8353 H         1             0.0989
     29 H8         24.5202   17.5553   63.6466 H         1             0.0437
     30 H9         24.7780   19.8896   62.1900 H         1             0.1270
     31 H10        25.7105   18.3981   61.9139 H         1             0.1045
     32 H11        25.8194   19.9085   59.9433 H         1             0.1290
     33 H12        24.9948   18.3824   59.5440 H         1             0.1356
     34 H13        22.7578   21.8516   60.1926 H         1             0.1408
     35 H14        23.5684   21.0448   61.5564 H         1             0.1402
     36 H15        24.8207   23.0631   60.8447 H         1             0.0980
     37 H16        25.7756   21.5872   60.5653 H         1             0.0727
     38 H17        26.1273   23.4738   57.4701 H         1             0.0699
     39 H18        26.0814   24.2109   59.0897 H         1             0.0728
     40 H19        28.2717   23.1282   58.6665 H         1             0.0715
     41 H20        27.4023   22.3152   59.9899 H         1             0.0555
     42 H21        26.7193   20.6919   58.3763 H         1             0.3892
     43 H22        21.6543   19.7963   59.6212 H         1             0.1285
     44 H23        22.6110   18.3183   59.3596 H         1             0.1395
     45 H24        21.5397   18.2858   61.5912 H         1             0.1060
     46 H25        22.3376   19.8240   62.0012 H         1             0.1266
     47 H26        24.3124   15.1881   63.1594 H         1             0.1330
     48 H27        22.9154   13.1708   63.3543 H         1             0.1367
@<TRIPOS>BOND
     1    1    2 1 
     2    1   23 1 
     3    1   24 1 
     4    1   25 1 
     5    2    3 1 
     6    3   22 ar
     7    3    4 ar
     8    4    5 ar
     9    4   26 1 
    10    5    6 ar
    11    5   27 1 
    12    6    7 1 
    13    6   21 ar
    14    7    8 1 
    15    7   28 1 
    16    7   29 1 
    17    8   20 1 
    18    8    9 1 
    19    9   10 1 
    20    9   30 1 
    21    9   31 1 
    22   10   11 1 
    23   10   32 1 
    24   10   33 1 
    25   11   12 1 
    26   11   13 1 
    27   11   19 1 
    28   13   14 1 
    29   13   34 1 
    30   13   35 1 
    31   14   15 1 
    32   14   36 1 
    33   14   37 1 
    34   15   16 1 
    35   16   17 1 
    36   16   38 1 
    37   16   39 1 
    38   17   18 1 
    39   17   40 1 
    40   17   41 1 
    41   18   42 1 
    42   19   20 1 
    43   19   43 1 
    44   19   44 1 
    45   20   45 1 
    46   20   46 1 
    47   21   22 ar
    48   21   47 1 
    49   22   48 1 
##########                 Name:            E43140829
##########          Protonation:                   80
##########               SMILES:   Cc1c([nH]cn1)C(=O)NC[C@]2(CCC[NH2+]CC2)O
##########            Long Name:   [(4R)-4-hydroxyazepan-1-ium-4-yl]methyl]-4-methyl-1H-imidazole-5-carboxamide
##########          FlexRecCode: 1
##########               Number:                  222
##########   Ligand Source File: /raidb/db2/rgc/leads-emolecules-300/leads-lt300-emolecules-1-0000101.db2.gz
##########           GlobalRank: 3336
##########                 Rank:                    1
##########               Setnum:                  215
##########             Matchnum:                 1336
##########                Cloud:                    1
##########        Electrostatic:           -34.487499
##########        Van der Waals:           -17.158627
##########  Ligand Polar Desolv:            11.542040
########## Ligand Apolar Desolv:            -0.420957
##########      Internal Energy:             0.000000
##########      Receptor Energy: 0.0
########## Receptor Desolvation:             0.000000
########## Receptor Hydrophobic:             0.000000
##########         Total Energy: -40.53
##########        Ligand Charge:             1.000000
##########            Arbitrary:    +999.9990
##########     heavy atom count:   18
##########           pose count:    1
##########        Ligand Energy:             0.000000
# num electro vdwattr vdwrepu polsolv apolsol rdesolv rhydroe totalscore fullpol fullapo
#   1   -0.46   -1.36    0.32   -0.05   -0.11    0.00    0.00      -1.66   -0.09   -0.19
#   2    0.44   -1.85    0.42   -0.08   -0.46    0.00    0.00      -1.54   -0.13   -0.78
#   3   -0.30   -1.68    0.44   -0.35   -0.37    0.00    0.00      -2.25   -0.71   -0.75
#   4   -0.16   -1.94    0.49   -3.25    0.56    0.00    0.00      -4.29   -6.71    1.16
#   5    0.19   -3.35    1.72    1.41   -1.84    0.00    0.00      -1.86    2.56   -3.33
#   6   -2.14   -3.06    0.86   -1.44    1.35    0.00    0.00      -4.44   -2.30    2.15
#   7    2.20   -1.71    0.41    2.16   -0.29    0.00    0.00       2.78    4.92   -0.65
#   8   -5.50   -2.01    0.76   -0.89    0.17    0.00    0.00      -7.47   -1.90    0.36
#   9    0.43   -1.69    0.29   -4.71    0.88    0.00    0.00      -4.80  -10.58    1.97
#  10   -0.37   -1.69    0.60    0.61   -0.17    0.00    0.00      -1.02    1.29   -0.36
#  11   -1.45   -0.97    0.14    1.50   -0.02    0.00    0.00      -0.80    3.58   -0.04
#  12   10.75   -3.14    3.30   -5.80    0.51    0.00    0.00       5.62  -13.27    1.17
#  13    1.80   -1.01    0.17   -1.59   -0.07    0.00    0.00      -0.70   -4.60   -0.19
#  14    1.59   -0.78    0.14   -1.12   -0.07    0.00    0.00      -0.24   -3.73   -0.23
#  15    0.46   -1.01    0.36   -0.04   -0.15    0.00    0.00      -0.38   -0.13   -0.45
#  16   13.33   -2.69    5.45   -5.67    0.32    0.00    0.00      10.75  -16.37    0.93
#  17  -19.89   -0.46    0.82    6.68    0.21    0.00    0.00     -12.65   18.13    0.57
#  18   -7.45   -0.02    0.00    2.93    0.08    0.00    0.00      -4.46   16.32    0.45
#  19    0.00   -1.41    0.44    0.25   -0.19    0.00    0.00      -0.90    0.58   -0.43
#  20    1.95   -0.73    0.06   -1.55   -0.08    0.00    0.00      -0.35   -3.74   -0.19
#  21    0.68   -0.30    0.03    0.01   -0.10    0.00    0.00       0.32    0.04   -0.28
#  22    0.41   -0.64    0.33    0.01   -0.12    0.00    0.00       0.00    0.02   -0.22
#  23    0.34   -0.50    0.19    0.00   -0.13    0.00    0.00      -0.10    0.01   -0.28
#  24   -0.33   -0.03    0.00    2.84    0.17    0.00    0.00       2.65    9.19    0.55
#  25   -0.61   -1.34    2.30    2.34   -0.14    0.00    0.00       2.54    4.60   -0.28
#  26   -0.80   -0.02    0.00    2.67    0.12    0.00    0.00       1.97    8.82    0.40
#  27   -0.13   -0.94    1.48    0.40   -0.12    0.00    0.00       0.68    0.93   -0.28
#  28   -0.27   -0.94    0.54    0.19   -0.15    0.00    0.00      -0.63    0.36   -0.28
#  29   -9.75   -0.40    0.45    4.39    0.48    0.00    0.00      -4.83    9.68    1.06
#  30   -0.51   -0.79    0.53    0.41   -0.08    0.00    0.00      -0.43    1.10   -0.22
#  31   -0.79   -0.18    0.02    0.55   -0.04    0.00    0.00      -0.44    3.41   -0.23
#  32   -1.20   -0.58    0.58    0.61   -0.07    0.00    0.00      -0.65    2.38   -0.28
#  33   -0.64   -0.13    0.01    0.39   -0.04    0.00    0.00      -0.41    2.80   -0.28
#  34   -3.79   -0.40    0.11    1.26   -0.06    0.00    0.00      -2.89    3.78   -0.18
#  35   -2.22   -0.31    0.15    1.15   -0.06    0.00    0.00      -1.30    5.21   -0.28
#  36   -4.03   -0.54    0.27    1.39   -0.09    0.00    0.00      -2.99    3.57   -0.22
#  37   -3.67   -0.75    0.40    2.65   -0.13    0.00    0.00      -1.50    5.53   -0.28
#  38   -1.13   -0.19    0.02    0.73   -0.05    0.00    0.00      -0.63    3.85   -0.26
#  39   -1.48   -0.26    0.03    0.54   -0.09    0.00    0.00      -1.25    1.78   -0.28
@<TRIPOS>MOLECULE
E43140829
   39    40     0     0     0
SMALL
USER_CHARGES


@<TRIPOS>ATOM
      1 C1         19.4351   13.8716   63.4430 C.3       1            -0.0858
      2 C2         20.9382   13.8082   63.5320 C.2       1             0.1190
      3 C3         21.7901   14.8767   63.5413 C.2       1            -0.1165
      4 N1         23.0658   14.3550   63.6351 N.pl3     1            -0.5617
      5 C4         22.9423   13.0164   63.6783 C.2       1             0.2378
      6 N2         21.6738   12.7001   63.6216 N.2       1            -0.4950
      7 C5         21.4230   16.2957   63.4658 C.2       1             0.6040
      8 O1         20.2524   16.6178   63.3849 O.2       1            -0.5054
      9 N3         22.3824   17.2420   63.4858 N.am      1            -0.7405
     10 C6         22.0160   18.6585   63.4103 C.3       1             0.0957
     11 C7         22.6585   19.2861   62.1717 C.3       1             0.1195
     12 O2         21.9646   20.4881   61.8313 O.3       1            -0.5525
     13 C8         24.1030   19.6020   62.4593 C.3       1            -0.1804
     14 C9         24.6228   20.8317   61.6894 C.3       1            -0.1356
     15 C10        24.1453   20.8617   60.2274 C.3       1            -0.0219
     16 N4         24.1980   19.5463   59.6315 N.4       1            -0.4982
     17 H1         24.4768   19.6196   58.6645 H         1             0.4356
     18 H2         24.8555   18.9690   60.1341 H         1             0.4246
     19 C11        22.8486   18.9617   59.7197 C.3       1            -0.0001
     20 C12        22.5806   18.2913   60.9885 C.3       1            -0.1380
     21 H3         19.1184   14.9127   63.3803 H         1             0.0803
     22 H4         19.1009   13.3362   62.5543 H         1             0.0887
     23 H5         18.9989   13.4119   64.3298 H         1             0.0780
     24 H6         23.8942   14.8589   63.6640 H         1             0.4173
     25 H7         23.7598   12.3145   63.7523 H         1             0.2207
     26 H8         23.3156   16.9853   63.5505 H         1             0.3886
     27 H9         20.9319   18.7501   63.3432 H         1             0.0874
     28 H10        22.3696   19.1734   64.3036 H         1             0.0905
     29 H11        21.9741   21.1585   62.5280 H         1             0.3877
     30 H12        24.2148   19.7853   63.5280 H         1             0.0957
     31 H13        24.7104   18.7379   62.1898 H         1             0.0843
     32 H14        24.2753   21.7344   62.1918 H         1             0.1035
     33 H15        25.7128   20.8210   61.7035 H         1             0.0925
     34 H16        23.1191   21.2276   60.1943 H         1             0.1463
     35 H17        24.7828   21.5376   59.6574 H         1             0.1274
     36 H18        22.1151   19.7564   59.5839 H         1             0.1412
     37 H19        22.7286   18.2394   58.9120 H         1             0.1324
     38 H20        23.3155   17.5003   61.1374 H         1             0.1043
     39 H21        21.5840   17.8508   60.9568 H         1             0.1286
@<TRIPOS>BOND
     1    1    2 1 
     2    1   21 1 
     3    1   22 1 
     4    1   23 1 
     5    2    6 1 
     6    2    3 2 
     7    3    4 1 
     8    3    7 1 
     9    4    5 1 
    10    4   24 1 
    11    5    6 2 
    12    5   25 1 
    13    7    8 2 
    14    7    9 am
    15    9   10 1 
    16    9   26 1 
    17   10   11 1 
    18   10   27 1 
    19   10   28 1 
    20   11   20 1 
    21   11   12 1 
    22   11   13 1 
    23   12   29 1 
    24   13   14 1 
    25   13   30 1 
    26   13   31 1 
    27   14   15 1 
    28   14   32 1 
    29   14   33 1 
    30   15   16 1 
    31   15   34 1 
    32   15   35 1 
    33   16   17 1 
    34   16   18 1 
    35   16   19 1 
    36   19   20 1 
    37   19   36 1 
    38   19   37 1 
    39   20   38 1 
    40   20   39 1 
##########                 Name:            E14273613
##########          Protonation:                  100
##########               SMILES:   Cc1ccccc1c2cc(=O)[nH]c(n2)Nc3ccccc3
##########            Long Name:   2-anilino-4-(o-tolyl)-1H-pyrimidin-6-one
##########          FlexRecCode: 1
##########               Number:                  211
##########   Ligand Source File: /raidb/db2/rgc/leads-emolecules-300/leads-emolecules-3-ag-0000002.db2.gz
##########           GlobalRank: 3380
##########                 Rank:                    1
##########               Setnum:                   78
##########             Matchnum:                 6947
##########                Cloud:                    1
##########        Electrostatic:            -7.875668
##########        Van der Waals:           -32.512188
##########  Ligand Polar Desolv:             5.232316
########## Ligand Apolar Desolv:            -5.347551
##########      Internal Energy:             0.000000
##########      Receptor Energy: 0.0
########## Receptor Desolvation:             0.000000
########## Receptor Hydrophobic:             0.000000
##########         Total Energy: -40.5
##########        Ligand Charge:             0.000000
##########            Arbitrary:    +999.9990
##########     heavy atom count:   21
##########           pose count:    1
##########        Ligand Energy:             0.000000
# num electro vdwattr vdwrepu polsolv apolsol rdesolv rhydroe totalscore fullpol fullapo
#   1   -0.15   -3.48    2.00    0.09   -0.13    0.00    0.00      -1.66    0.13   -0.19
#   2   -0.31   -2.75    0.65    0.09   -0.26    0.00    0.00      -2.58    0.14   -0.41
#   3   -1.06   -2.88    0.82    0.03   -0.29    0.00    0.00      -3.38    0.05   -0.45
#   4   -1.28   -2.45    0.80   -0.03   -0.30    0.00    0.00      -3.25   -0.05   -0.47
#   5   -1.74   -3.02    1.19    0.02   -0.28    0.00    0.00      -3.83    0.03   -0.47
#   6   -1.25   -2.68    0.85    0.12   -0.27    0.00    0.00      -3.24    0.21   -0.46
#   7   -0.64   -2.22    0.60    0.16   -0.25    0.00    0.00      -2.35    0.26   -0.39
#   8    2.36   -1.92    0.36   -0.63   -0.32    0.00    0.00      -0.15   -1.10   -0.55
#   9   -1.37   -2.85    1.69    1.18   -0.27    0.00    0.00      -1.62    1.97   -0.45
#  10    2.35   -2.76    1.50   -1.99   -0.41    0.00    0.00      -1.31   -3.19   -0.65
#  11   -2.88   -4.59    2.78    4.22    0.30    0.00    0.00      -0.16    6.38    0.46
#  12   -2.56   -1.98    0.45    0.30    0.95    0.00    0.00      -2.84    0.54    1.70
#  13    3.63   -2.11    0.99   -0.05   -2.20    0.00    0.00       0.27   -0.11   -4.66
#  14   -1.67   -1.94    0.55   -0.82    0.47    0.00    0.00      -3.40   -1.82    1.05
#  15   -0.23   -1.44    0.26    0.08   -0.29    0.00    0.00      -1.63    0.18   -0.67
#  16    1.19   -1.17    0.09   -0.17   -0.19    0.00    0.00      -0.26   -0.41   -0.46
#  17    1.67   -1.22    0.10   -0.13   -0.21    0.00    0.00       0.20   -0.30   -0.47
#  18    2.37   -1.82    0.29   -0.12   -0.25    0.00    0.00       0.47   -0.22   -0.47
#  19    0.98   -2.41    0.81   -0.01   -0.25    0.00    0.00      -0.88   -0.02   -0.47
#  20    0.04   -2.13    0.96    0.04   -0.18    0.00    0.00      -1.27    0.08   -0.40
#  21   -6.16   -2.26    0.90    0.68    0.61    0.00    0.00      -6.23    1.31    1.19
#  22   -0.29   -1.54    1.16   -0.08   -0.19    0.00    0.00      -0.94   -0.12   -0.28
#  23   -0.16   -1.62    3.06    0.03   -0.18    0.00    0.00       1.13    0.04   -0.28
#  24    0.35   -1.14    0.65   -0.08   -0.16    0.00    0.00      -0.38   -0.12   -0.25
#  25    0.59   -0.71    0.19    0.17   -0.16    0.00    0.00       0.08    0.29   -0.28
#  26    1.46   -0.37    0.04    0.25   -0.14    0.00    0.00       1.25    0.51   -0.28
#  27    0.88   -1.07    1.60    0.19   -0.16    0.00    0.00       1.44    0.34   -0.28
#  28    1.68   -0.62    0.23   -0.10   -0.15    0.00    0.00       1.04   -0.19   -0.28
#  29    0.08   -0.91    0.61   -0.47   -0.15    0.00    0.00      -0.84   -0.87   -0.28
#  30    0.87   -0.03    0.00    0.42    0.24    0.00    0.00       1.51    1.04    0.59
#  31    0.74   -0.04    0.00    1.20    0.23    0.00    0.00       2.14    3.07    0.59
#  32   -0.93   -0.24    0.02    0.28   -0.08    0.00    0.00      -0.96    0.94   -0.28
#  33   -2.64   -0.23    0.02    0.20   -0.07    0.00    0.00      -2.72    0.79   -0.28
#  34   -3.22   -0.67    0.41    0.22   -0.13    0.00    0.00      -3.39    0.49   -0.28
#  35   -1.25   -0.99    1.40    0.06   -0.15    0.00    0.00      -0.93    0.11   -0.28
#  36    0.66   -0.42    0.13   -0.11   -0.09    0.00    0.00       0.17   -0.28   -0.22
@<TRIPOS>MOLECULE
E14273613
   36    38     0     0     0
SMALL
USER_CHARGES


@<TRIPOS>ATOM
      1 C1         17.8420   14.1923   67.2775 C.3       1            -0.1095
      2 C2         16.9843   14.7945   66.1945 C.ar      1            -0.0435
      3 C3         15.6561   15.0767   66.4412 C.ar      1            -0.1245
      4 C4         14.8678   15.6300   65.4483 C.ar      1            -0.1008
      5 C5         15.4048   15.9035   64.2029 C.ar      1            -0.1276
      6 C6         16.7313   15.6258   63.9444 C.ar      1            -0.0863
      7 C7         17.5326   15.0733   64.9433 C.ar      1            -0.0566
      8 C8         18.9595   14.7778   64.6738 C.2       1             0.2672
      9 C9         19.4327   13.4781   64.7752 C.2       1            -0.3248
     10 C10        20.7892   13.2332   64.5128 C.2       1             0.5446
     11 O1         21.2426   12.1029   64.5913 O.2       1            -0.5365
     12 N1         21.5835   14.2694   64.1718 N.am      1            -0.6493
     13 C11        21.0687   15.5266   64.0869 C.2       1             0.6311
     14 N2         21.8920   16.5665   63.7393 N.pl3     1            -0.6417
     15 C12        21.6205   17.3203   62.5929 C.ar      1             0.1517
     16 C13        22.4565   18.3704   62.2363 C.ar      1            -0.1407
     17 C14        22.1859   19.1125   61.1033 C.ar      1            -0.1015
     18 C15        21.0838   18.8108   60.3243 C.ar      1            -0.1281
     19 C16        20.2494   17.7658   60.6767 C.ar      1            -0.1008
     20 C17        20.5174   17.0166   61.8054 C.ar      1            -0.1019
     21 N3         19.7967   15.7644   64.3258 N.2       1            -0.5635
     22 H1         17.2432   14.0474   68.1768 H         1             0.0799
     23 H2         18.2305   13.2311   66.9407 H         1             0.0644
     24 H3         18.6726   14.8626   67.4981 H         1             0.0594
     25 H4         15.2312   14.8648   67.4112 H         1             0.1265
     26 H5         13.8289   15.8491   65.6460 H         1             0.1254
     27 H6         14.7843   16.3349   63.4314 H         1             0.1274
     28 H7         17.1493   15.8398   62.9718 H         1             0.1268
     29 H8         18.7705   12.6707   65.0508 H         1             0.1558
     30 H9         22.5238   14.1180   63.9869 H         1             0.4132
     31 H10        22.6626   16.7796   64.2885 H         1             0.4226
     32 H11        23.3171   18.6067   62.8445 H         1             0.1250
     33 H12        22.8354   19.9294   60.8256 H         1             0.1274
     34 H13        20.8741   19.3928   59.4391 H         1             0.1241
     35 H14        19.3893   17.5331   60.0663 H         1             0.1262
     36 H15        19.8676   16.1980   62.0777 H         1             0.1389
@<TRIPOS>BOND
     1    1    2 1 
     2    1   22 1 
     3    1   23 1 
     4    1   24 1 
     5    2    7 ar
     6    2    3 ar
     7    3    4 ar
     8    3   25 1 
     9    4    5 ar
    10    4   26 1 
    11    5    6 ar
    12    5   27 1 
    13    6    7 ar
    14    6   28 1 
    15    7    8 1 
    16    8   21 1 
    17    8    9 2 
    18    9   10 1 
    19    9   29 1 
    20   10   11 2 
    21   10   12 am
    22   12   13 1 
    23   12   30 1 
    24   13   14 1 
    25   13   21 2 
    26   14   15 1 
    27   14   31 1 
    28   15   20 ar
    29   15   16 ar
    30   16   17 ar
    31   16   32 1 
    32   17   18 ar
    33   17   33 1 
    34   18   19 ar
    35   18   34 1 
    36   19   20 ar
    37   19   35 1 
    38   20   36 1 
##########                 Name:            E43204178
##########          Protonation:                   91
##########               SMILES:   CC(C)C[C@@H](C(=O)N(C)Cc1cccc(c1)SC)[NH3+]
##########            Long Name:   -3-methyl-1-[methyl-[(3-methylsulfanylphenyl)methyl]carbamoyl]butyl]ammonium
##########          FlexRecCode: 1
##########               Number:                  629
##########   Ligand Source File: /raidb/db2/rgc/leads-emolecules-300/leads-lt300-emolecules-1j-0000195.db2.gz
##########           GlobalRank: 3380
##########                 Rank:                    1
##########               Setnum:                   39
##########             Matchnum:                 4894
##########                Cloud:                    1
##########        Electrostatic:           -29.936193
##########        Van der Waals:           -19.092955
##########  Ligand Polar Desolv:            11.066715
########## Ligand Apolar Desolv:            -2.532793
##########      Internal Energy:             0.000000
##########      Receptor Energy: 0.0
########## Receptor Desolvation:             0.000000
########## Receptor Hydrophobic:             0.000000
##########         Total Energy: -40.5
##########        Ligand Charge:             1.000000
##########            Arbitrary:    +999.9990
##########     heavy atom count:   19
##########           pose count:    1
##########        Ligand Energy:             0.000000
# num electro vdwattr vdwrepu polsolv apolsol rdesolv rhydroe totalscore fullpol fullapo
#   1   -0.76   -1.51    0.45   -0.59    0.02    0.00    0.00      -2.39   -0.99    0.03
#   2   -0.40   -4.07    0.97   -0.84   -0.52    0.00    0.00      -4.85   -1.32   -0.81
#   3   -0.20   -1.95    0.46   -0.42   -0.16    0.00    0.00      -2.28   -0.77   -0.29
#   4   -0.21   -1.67    0.39   -0.40   -0.20    0.00    0.00      -2.09   -0.86   -0.44
#   5    0.00   -1.66    0.33   -0.40   -0.16    0.00    0.00      -1.89   -0.94   -0.38
#   6   -0.30   -1.21    0.22    1.10   -0.19    0.00    0.00      -0.38    2.44   -0.42
#   7    4.70   -1.05    0.06   -4.92    0.81    0.00    0.00      -0.40  -11.87    1.95
#   8   -0.44   -1.04    0.29    0.39   -0.23    0.00    0.00      -1.02    0.89   -0.52
#   9   -6.40   -0.95    0.05    4.00   -0.22    0.00    0.00      -3.51   10.72   -0.58
#  10    5.52   -1.41    0.21   -3.61    0.13    0.00    0.00       0.84  -10.27    0.37
#  11   -0.09   -0.90    0.21    0.60   -0.07    0.00    0.00      -0.25    1.72   -0.20
#  12   18.42   -2.87    4.96   -7.94    0.27    0.00    0.00      12.85  -20.55    0.71
#  13  -13.16   -0.04    0.00    6.32    0.22    0.00    0.00      -6.66   16.79    0.58
#  14   -9.86   -0.02    0.00    3.74    0.14    0.00    0.00      -6.00   15.04    0.56
#  15  -22.11   -0.51    1.05    7.42    0.19    0.00    0.00     -13.95   17.95    0.47
#  16    2.04   -0.70    0.14   -0.95   -0.05    0.00    0.00       0.48   -3.44   -0.17
#  17    0.81   -0.46    0.02   -0.52   -0.05    0.00    0.00      -0.19   -1.92   -0.18
#  18    1.19   -1.22    0.47   -1.18   -0.07    0.00    0.00      -0.81   -3.10   -0.18
#  19    0.59   -0.33    0.01   -0.88   -0.04    0.00    0.00      -0.64   -4.17   -0.18
#  20    0.16   -2.03    0.84   -0.51   -0.18    0.00    0.00      -1.71   -1.27   -0.45
#  21    0.17   -2.22    0.87   -0.53   -0.21    0.00    0.00      -1.92   -1.19   -0.47
#  22    0.05   -2.82    1.27   -0.65   -0.23    0.00    0.00      -2.38   -1.26   -0.44
#  23    0.32   -0.88    1.17    0.45   -0.13    0.00    0.00       0.93    0.92   -0.27
#  24    0.68   -0.71    0.82    0.50   -0.13    0.00    0.00       1.16    1.10   -0.28
#  25    0.72   -0.29    0.03    0.26   -0.10    0.00    0.00       0.62    0.72   -0.27
#  26    0.78   -0.28    0.04    0.25   -0.08    0.00    0.00       0.70    0.80   -0.27
#  27    0.20   -0.69    0.64    0.96   -0.12    0.00    0.00       0.99    2.25   -0.28
#  28   -0.32   -0.56    0.14    0.39   -0.10    0.00    0.00      -0.45    0.94   -0.25
#  29   -1.25   -0.32    0.05    0.94   -0.10    0.00    0.00      -0.69    2.61   -0.28
#  30   -0.45   -0.78    1.89    1.00   -0.05    0.00    0.00       1.61    3.12   -0.17
#  31   -0.39   -0.36    0.14    0.49   -0.10    0.00    0.00      -0.22    1.40   -0.28
#  32   -3.44   -0.37    0.09    2.48   -0.06    0.00    0.00      -1.30    7.37   -0.19
#  33   -1.81   -0.50    0.36    0.58   -0.08    0.00    0.00      -1.45    2.16   -0.28
#  34   -1.27   -0.11    0.01    0.21   -0.02    0.00    0.00      -1.19    1.94   -0.21
#  35   -0.51   -0.14    0.01    0.50   -0.03    0.00    0.00      -0.16    4.31   -0.22
#  36   -0.30   -0.28    0.04    0.11   -0.09    0.00    0.00      -0.52    0.35   -0.28
#  37   -0.72   -0.56    0.52    0.15   -0.09    0.00    0.00      -0.70    0.47   -0.28
#  38   -0.49   -0.67    0.35    0.34   -0.11    0.00    0.00      -0.58    0.83   -0.28
#  39   -0.12   -0.09    0.00    0.31   -0.02    0.00    0.00       0.09    3.57   -0.22
#  40   -0.16   -0.12    0.01    0.07   -0.04    0.00    0.00      -0.24    0.51   -0.28
#  41   -0.19   -0.07    0.00    0.05   -0.02    0.00    0.00      -0.22    0.80   -0.28
#  42   -0.48   -0.47    0.21    0.75   -0.08    0.00    0.00      -0.06    2.78   -0.28
#  43   -0.35   -0.37    0.08    0.55   -0.09    0.00    0.00      -0.18    1.70   -0.28
#  44   -0.12   -1.19    1.48    0.50   -0.11    0.00    0.00       0.55    0.96   -0.21
@<TRIPOS>MOLECULE
E43204178
   44    44     0     0     0
SMALL
USER_CHARGES


@<TRIPOS>ATOM
      1 C1         19.3297   13.7828   64.5513 C.3       1            -0.1455
      2 S1         20.6186   12.8319   63.6999 S.3       1            -0.1138
      3 C2         22.0010   13.9239   63.6650 C.ar      1            -0.0837
      4 C3         21.8017   15.2988   63.6220 C.ar      1            -0.0780
      5 C4         22.8872   16.1515   63.5947 C.ar      1            -0.1042
      6 C5         22.6721   17.6424   63.5486 C.3       1             0.1535
      7 N1         22.6014   18.0826   62.1531 N.am      1            -0.5823
      8 C6         21.5638   17.5478   61.2680 C.3       1             0.0504
      9 C7         23.4911   18.9797   61.6837 C.2       1             0.5015
     10 O1         23.9677   19.8086   62.4297 O.2       1            -0.5188
     11 C8         23.8937   18.9527   60.2317 C.3       1             0.0045
     12 N2         23.5488   20.2351   59.6039 N.4       1            -0.6210
     13 H1         22.5538   20.3873   59.6743 H         1             0.4408
     14 H2         24.0373   20.9820   60.0746 H         1             0.4426
     15 H3         23.8183   20.2170   58.6318 H         1             0.4399
     16 C9         25.4024   18.7219   60.1249 C.3       1            -0.1423
     17 C10        25.7616   17.3862   60.7786 C.3       1            -0.1019
     18 C11        25.0208   16.2535   60.0650 C.3       1            -0.1549
     19 C12        27.2703   17.1554   60.6717 C.3       1            -0.1662
     20 C13        24.1719   15.6390   63.6100 C.ar      1            -0.1105
     21 C14        24.3740   14.2717   63.6524 C.ar      1            -0.0974
     22 C15        23.2930   13.4129   63.6861 C.ar      1            -0.1230
     23 H4         18.4226   13.1826   64.6226 H         1             0.0853
     24 H5         19.6722   14.0439   65.5526 H         1             0.1142
     25 H6         19.1194   14.6935   63.9903 H         1             0.0873
     26 H7         20.7989   15.6996   63.6096 H         1             0.1319
     27 H8         21.7398   17.8908   64.0557 H         1             0.1035
     28 H9         23.5016   18.1446   64.0465 H         1             0.1031
     29 H10        21.6694   17.9885   60.2766 H         1             0.0770
     30 H11        21.6689   16.4652   61.1975 H         1             0.0781
     31 H12        20.5810   17.7920   61.6713 H         1             0.0932
     32 H13        23.3659   18.1457   59.7233 H         1             0.1652
     33 H14        25.6935   18.7023   59.0747 H         1             0.1015
     34 H15        25.9303   19.5288   60.6333 H         1             0.1188
     35 H16        25.4704   17.4056   61.8289 H         1             0.0683
     36 H17        25.2766   15.3018   60.5309 H         1             0.0662
     37 H18        23.9458   16.4177   60.1411 H         1             0.0708
     38 H19        25.3118   16.2339   59.0149 H         1             0.0632
     39 H20        27.5262   16.2037   61.1375 H         1             0.0527
     40 H21        27.5614   17.1358   59.6216 H         1             0.0751
     41 H22        27.7982   17.9623   61.1800 H         1             0.0707
     42 H23        25.0192   16.3084   63.5886 H         1             0.1259
     43 H24        25.3784   13.8750   63.6636 H         1             0.1310
     44 H25        23.4515   12.3453   63.7244 H         1             0.1271
@<TRIPOS>BOND
     1    1    2 1 
     2    1   23 1 
     3    1   24 1 
     4    1   25 1 
     5    2    3 1 
     6    3   22 ar
     7    3    4 ar
     8    4    5 ar
     9    4   26 1 
    10    5    6 1 
    11    5   20 ar
    12    6    7 1 
    13    6   27 1 
    14    6   28 1 
    15    7    8 1 
    16    7    9 am
    17    8   29 1 
    18    8   30 1 
    19    8   31 1 
    20    9   10 2 
    21    9   11 1 
    22   11   12 1 
    23   11   16 1 
    24   11   32 1 
    25   12   13 1 
    26   12   14 1 
    27   12   15 1 
    28   16   17 1 
    29   16   33 1 
    30   16   34 1 
    31   17   18 1 
    32   17   19 1 
    33   17   35 1 
    34   18   36 1 
    35   18   37 1 
    36   18   38 1 
    37   19   39 1 
    38   19   40 1 
    39   19   41 1 
    40   20   21 ar
    41   20   42 1 
    42   21   22 ar
    43   21   43 1 
    44   22   44 1 
##########                 Name:            E45727779
##########          Protonation:                   12
##########               SMILES:   c1cc(ccc1N/C(=N/C(=[NH2+])N)/N)S(=O)(=O)N
##########            Long Name:   [amino-[(E)-[amino-(4-sulfamoylanilino)methylene]amino]methylene]ammonium
##########          FlexRecCode: 1
##########               Number:                  593
##########   Ligand Source File: /raidb/db2/rgc/leads-emolecules-300/leads-emolecules-3-cm-0000011.db2.gz
##########           GlobalRank: 3402
##########                 Rank:                    1
##########               Setnum:                   88
##########             Matchnum:                 4042
##########                Cloud:                    1
##########        Electrostatic:           -25.365673
##########        Van der Waals:           -25.716825
##########  Ligand Polar Desolv:             9.630329
########## Ligand Apolar Desolv:             0.958057
##########      Internal Energy:             0.000000
##########      Receptor Energy: 0.0
########## Receptor Desolvation:             0.000000
########## Receptor Hydrophobic:             0.000000
##########         Total Energy: -40.49
##########        Ligand Charge:             1.000000
##########            Arbitrary:    +999.9990
##########     heavy atom count:   17
##########           pose count:    1
##########        Ligand Energy:             0.000000
# num electro vdwattr vdwrepu polsolv apolsol rdesolv rhydroe totalscore fullpol fullapo
#   1   20.67   -2.72    1.17  -12.07    0.41    0.00    0.00       7.47  -22.83    0.78
#   2  -15.44   -1.61    0.25    8.40   -2.05    0.00    0.00     -10.45   18.43   -4.49
#   3   20.81   -2.90    1.57   -8.22    0.39    0.00    0.00      11.64  -19.70    0.93
#   4  -15.90   -0.13    0.02    4.70    0.26    0.00    0.00     -11.04   10.80    0.60
#   5  -11.39   -0.08    0.01    4.47    0.21    0.00    0.00      -6.78   12.63    0.59
#   6    8.30   -1.31    0.13   -7.26    0.66    0.00    0.00       0.51  -16.27    1.47
#   7   -7.53   -0.96    0.05    6.59   -1.71    0.00    0.00      -3.55   17.56   -4.54
#   8   11.48   -0.79    0.04   -6.85    0.26    0.00    0.00       4.14  -22.79    0.85
#   9    3.40   -1.48    0.21   -5.57    0.41    0.00    0.00      -3.04  -14.28    1.05
#  10   -0.29   -1.42    0.19    1.79   -0.28    0.00    0.00       0.00    4.34   -0.67
#  11    0.16   -1.57    0.31   -0.86   -0.17    0.00    0.00      -2.11   -2.04   -0.40
#  12    0.00   -1.94    0.51   -0.17   -0.22    0.00    0.00      -1.82   -0.35   -0.45
#  13   -2.27   -1.75    0.37   -4.06   -0.16    0.00    0.00      -7.85   -7.25   -0.28
#  14    0.04   -1.68    0.39   -0.19   -0.21    0.00    0.00      -1.65   -0.40   -0.45
#  15   -0.42   -1.78    0.47   -1.13   -0.21    0.00    0.00      -3.06   -2.52   -0.46
#  16    9.31   -4.17    1.22   11.58   -0.15    0.00    0.00      17.79   18.07   -0.23
#  17   -3.27   -3.99    1.96   -8.38    0.25    0.00    0.00     -13.44  -12.59    0.37
#  18   -6.07   -5.57    4.34   -1.63    0.98    0.00    0.00      -7.95   -2.46    1.48
#  19   -3.39   -2.49    0.84   -1.82    0.90    0.00    0.00      -5.96   -3.00    1.48
#  20  -13.67   -0.11    0.02    6.48    0.28    0.00    0.00      -7.00   13.47    0.59
#  21   -8.97   -0.04    0.00    5.61    0.21    0.00    0.00      -3.19   12.90    0.48
#  22   -8.36   -0.02    0.00    2.29    0.07    0.00    0.00      -6.01   12.76    0.39
#  23   -4.35   -0.01    0.00    1.45    0.07    0.00    0.00      -2.84   12.87    0.60
#  24   -2.69   -0.05    0.00    4.13    0.20    0.00    0.00       1.60   11.97    0.59
#  25   -0.39   -0.25    0.03    0.85   -0.05    0.00    0.00       0.19    3.46   -0.21
#  26   -0.14   -0.51    0.16    0.77   -0.12    0.00    0.00       0.16    1.76   -0.27
#  27    1.56   -0.29    0.03    0.51   -0.09    0.00    0.00       1.72    1.57   -0.27
#  28    0.64   -0.49    0.25    1.26   -0.10    0.00    0.00       1.56    3.61   -0.28
#  29    1.26   -0.11    0.01    4.07    0.46    0.00    0.00       5.68    6.05    0.68
#  30    1.53   -0.06    0.00    2.90    0.44    0.00    0.00       4.81    4.53    0.69
@<TRIPOS>MOLECULE
E45727779
   30    30     0     0     0
SMALL
USER_CHARGES


@<TRIPOS>ATOM
      1 N1         21.4669   19.1438   59.6496 N.pl3     1            -0.8279
      2 C1         21.9884   19.7822   60.7047 C.cat     1             0.7272
      3 N2         22.2302   21.0976   60.6388 N.pl3     1            -0.7631
      4 H1         22.0276   21.5879   59.8268 H         1             0.4462
      5 H2         22.6081   21.5601   61.4033 H         1             0.4329
      6 N3         22.2688   19.1032   61.8292 N.2       1            -0.6470
      7 C2         23.4611   18.5555   61.9907 C.2       1             0.7220
      8 N4         24.4447   18.7776   61.0702 N.pl3     1            -0.8538
      9 N5         23.7092   17.7671   63.0790 N.pl3     1            -0.6174
     10 C3         22.9545   16.6083   63.2898 C.ar      1             0.1866
     11 C4         23.5812   15.3703   63.3461 C.ar      1            -0.1266
     12 C5         22.8333   14.2281   63.5548 C.ar      1             0.0024
     13 C6         21.4618   14.3163   63.7078 C.ar      1            -0.6746
     14 C7         20.8347   15.5475   63.6524 C.ar      1             0.0073
     15 C8         21.5775   16.6940   63.4492 C.ar      1            -0.1473
     16 S1         20.5113   12.8567   63.9734 S.o2      1             2.7004
     17 N6         20.0622   12.2871   62.4848 N.pl3     1            -1.2482
     18 O1         21.3950   11.8919   64.5279 O.2       1            -0.9549
     19 O2         19.3181   13.2630   64.6296 O.2       1            -0.9571
     20 H3         21.2660   19.6338   58.8369 H         1             0.4289
     21 H4         21.2934   18.1906   59.6967 H         1             0.4329
     22 H5         24.2685   19.3373   60.2976 H         1             0.4240
     23 H6         25.3195   18.3758   61.1886 H         1             0.4263
     24 H7         24.4085   18.0111   63.7053 H         1             0.4382
     25 H8         24.6523   15.3006   63.2263 H         1             0.1453
     26 H9         23.3202   13.2650   63.5983 H         1             0.1531
     27 H10        19.7633   15.6131   63.7719 H         1             0.1570
     28 H11        21.0876   17.6557   63.4104 H         1             0.1452
     29 H12        20.6312   11.6577   62.0144 H         1             0.4166
     30 H13        19.2302   12.5827   62.0831 H         1             0.4255
@<TRIPOS>BOND
     1    1    2 1 
     2    1   20 1 
     3    1   21 1 
     4    2    3 2 
     5    2    6 1 
     6    3    4 1 
     7    3    5 1 
     8    6    7 2 
     9    7    8 1 
    10    7    9 1 
    11    8   22 1 
    12    8   23 1 
    13    9   10 1 
    14    9   24 1 
    15   10   15 ar
    16   10   11 ar
    17   11   12 ar
    18   11   25 1 
    19   12   13 ar
    20   12   26 1 
    21   13   14 ar
    22   13   16 1 
    23   14   15 ar
    24   14   27 1 
    25   15   28 1 
    26   16   17 1 
    27   16   18 2 
    28   16   19 2 
    29   17   29 1 
    30   17   30 1 
##########                 Name:             E1348312
##########          Protonation:                   75
##########               SMILES:   Cc1cccc(c1)C[NH+]2CCN(CC2)Cc3ccc(cc3)F
##########            Long Name:   1-[(4-fluorophenyl)methyl]-4-(m-tolylmethyl)piperazin-4-ium
##########          FlexRecCode: 1
##########               Number:                  144
##########   Ligand Source File: /raidb/db2/rgc/leads-emolecules-300/leads-emolecules-lt300-2j-0000003.db2.gz
##########           GlobalRank: 3402
##########                 Rank:                    1
##########               Setnum:                   57
##########             Matchnum:                 3849
##########                Cloud:                    1
##########        Electrostatic:           -23.318844
##########        Van der Waals:           -21.732029
##########  Ligand Polar Desolv:             7.549268
########## Ligand Apolar Desolv:            -2.988694
##########      Internal Energy:             0.000000
##########      Receptor Energy: 0.0
########## Receptor Desolvation:             0.000000
########## Receptor Hydrophobic:             0.000000
##########         Total Energy: -40.49
##########        Ligand Charge:             1.000000
##########            Arbitrary:    +999.9990
##########     heavy atom count:   22
##########           pose count:    1
##########        Ligand Energy:             0.000000
# num electro vdwattr vdwrepu polsolv apolsol rdesolv rhydroe totalscore fullpol fullapo
#   1   -0.09   -0.49    0.08   -0.39   -0.05    0.00    0.00      -0.94   -1.69   -0.20
#   2    0.01   -0.65    0.05   -0.45   -0.10    0.00    0.00      -1.15   -1.93   -0.41
#   3   -0.02   -0.90    0.11   -0.63   -0.13    0.00    0.00      -1.58   -2.13   -0.45
#   4   -0.02   -1.58    0.57   -0.77   -0.15    0.00    0.00      -1.94   -2.44   -0.47
#   5    0.33   -1.44    0.39   -0.62   -0.11    0.00    0.00      -1.45   -2.10   -0.36
#   6    1.17   -0.86    0.13   -0.63   -0.08    0.00    0.00      -0.28   -2.54   -0.33
#   7   -0.45   -0.58    0.12    0.33   -0.07    0.00    0.00      -0.64    1.42   -0.31
#   8    9.43   -2.42    4.14   -3.71    0.14    0.00    0.00       7.59  -11.32    0.43
#   9  -19.29   -0.45    0.75    5.74    0.20    0.00    0.00     -13.04   15.87    0.56
#  10    0.16   -0.98    0.22    0.07   -0.14    0.00    0.00      -0.68    0.18   -0.39
#  11   -0.34   -0.79    0.09    0.18   -0.14    0.00    0.00      -1.00    0.48   -0.37
#  12    5.13   -0.93    0.05   -5.09    1.24    0.00    0.00       0.39  -13.21    3.21
#  13   -0.39   -1.04    0.13    0.88   -0.16    0.00    0.00      -0.57    2.10   -0.39
#  14    0.02   -1.48    0.24   -0.47   -0.14    0.00    0.00      -1.84   -1.11   -0.34
#  15   -0.29   -1.76    0.45   -0.43   -0.20    0.00    0.00      -2.23   -0.98   -0.45
#  16   -0.80   -1.60    0.32   -0.87   -0.25    0.00    0.00      -3.20   -1.62   -0.47
#  17    0.34   -1.93    0.52   -0.03   -0.20    0.00    0.00      -1.29   -0.05   -0.34
#  18   -0.50   -1.39    0.20   -0.39   -0.31    0.00    0.00      -2.39   -0.61   -0.48
#  19   -0.01   -2.07    0.60   -0.91   -0.24    0.00    0.00      -2.63   -1.80   -0.47
#  20    0.10   -1.56    0.31   -0.45   -0.16    0.00    0.00      -1.76   -1.06   -0.37
#  21   -0.18   -0.57    0.05   -0.02   -0.11    0.00    0.00      -0.85   -0.08   -0.37
#  22    0.04   -1.31    0.50    0.23   -0.16    0.00    0.00      -0.70    0.61   -0.42
#  23    0.37   -0.59    0.03   -0.47   -0.10    0.00    0.00      -0.76   -1.98   -0.44
#  24    0.08   -0.15    0.01    0.17   -0.05    0.00    0.00       0.06    0.94   -0.28
#  25    0.02   -0.06    0.00    0.02   -0.02    0.00    0.00      -0.04    0.28   -0.28
#  26    0.05   -0.36    0.26    0.27   -0.06    0.00    0.00       0.16    1.23   -0.28
#  27    0.07   -0.16    0.01    0.16   -0.06    0.00    0.00       0.03    0.79   -0.28
#  28    0.03   -0.54    0.34    0.50   -0.08    0.00    0.00       0.24    1.68   -0.28
#  29   -0.48   -0.43    0.21    1.16   -0.06    0.00    0.00       0.40    4.23   -0.22
#  30   -1.25   -0.11    0.00    0.68   -0.03    0.00    0.00      -0.70    6.16   -0.28
#  31   -1.47   -0.13    0.02    0.52   -0.02    0.00    0.00      -1.09    4.46   -0.15
#  32   -3.15   -0.30    0.05    1.10   -0.06    0.00    0.00      -2.36    3.89   -0.21
#  33   -3.69   -0.37    0.09    1.54   -0.10    0.00    0.00      -2.53    4.49   -0.28
#  34   -0.62   -0.24    0.02    0.49   -0.04    0.00    0.00      -0.39    2.24   -0.17
#  35   -1.86   -0.51    0.28    0.84   -0.09    0.00    0.00      -1.34    2.59   -0.28
#  36   -0.28   -0.56    0.28    0.57   -0.09    0.00    0.00      -0.08    1.70   -0.28
#  37   -0.26   -0.48    0.10    0.81   -0.12    0.00    0.00       0.07    1.88   -0.27
#  38    1.30   -0.53    0.30    0.83   -0.10    0.00    0.00       1.81    2.40   -0.28
#  39    1.09   -0.27    0.02    0.30   -0.10    0.00    0.00       1.05    0.88   -0.28
#  40   -0.39   -0.67    0.47    0.63   -0.13    0.00    0.00      -0.08    1.41   -0.28
#  41   -0.34   -0.24    0.03    0.92   -0.07    0.00    0.00       0.28    3.67   -0.28
#  42   -0.51   -0.13    0.01    0.30   -0.02    0.00    0.00      -0.36    2.63   -0.21
#  43   -0.92   -0.22    0.04    0.40   -0.04    0.00    0.00      -0.74    1.98   -0.21
#  44   -2.93   -0.68    0.56    1.77   -0.11    0.00    0.00      -1.39    4.34   -0.28
#  45   -1.91   -0.46    0.18    2.05   -0.09    0.00    0.00      -0.23    6.21   -0.28
#  46   -0.61   -0.09    0.00    0.42   -0.03    0.00    0.00      -0.31    4.40   -0.28
@<TRIPOS>MOLECULE
E1348312
   46    48     0     0     0
SMALL
USER_CHARGES


@<TRIPOS>ATOM
      1 C1         28.8440   15.7626   59.6907 C.3       1            -0.1268
      2 C2         28.3847   17.1299   59.2543 C.ar      1            -0.0721
      3 C3         28.9925   17.7534   58.1804 C.ar      1            -0.0877
      4 C4         28.5713   19.0073   57.7802 C.ar      1            -0.1069
      5 C5         27.5418   19.6383   58.4536 C.ar      1            -0.1068
      6 C6         26.9335   19.0148   59.5266 C.ar      1            -0.1534
      7 C7         25.8115   19.7026   60.2609 C.3       1             0.0345
      8 N1         24.5287   19.3448   59.6410 N.4       1            -0.3818
      9 H1         24.5285   19.6380   58.6756 H         1             0.4273
     10 C8         23.4355   20.0159   60.3564 C.3       1            -0.0069
     11 C9         23.4468   19.5857   61.8251 C.3       1             0.0244
     12 N2         23.2859   18.1270   61.9064 N.3       1            -0.5315
     13 C10        23.2349   17.6803   63.3049 C.3       1             0.0987
     14 C11        22.5957   16.3173   63.3738 C.ar      1            -0.1086
     15 C12        21.2261   16.2035   63.5237 C.ar      1            -0.0635
     16 C13        20.6388   14.9542   63.5871 C.ar      1            -0.1515
     17 C14        21.4227   13.8161   63.4999 C.ar      1             0.1119
     18 F1         20.8495   12.5942   63.5612 F         1            -0.1328
     19 C15        22.7942   13.9313   63.3494 C.ar      1            -0.1530
     20 C16        23.3787   15.1817   63.2815 C.ar      1            -0.0884
     21 C17        24.3597   17.4418   61.1734 C.3       1             0.0181
     22 C18        24.3407   17.8897   59.7106 C.3       1            -0.0022
     23 C19        27.3519   17.7585   59.9242 C.ar      1            -0.0974
     24 H2         29.6606   15.4316   59.0490 H         1             0.0797
     25 H3         29.1892   15.8077   60.7237 H         1             0.0764
     26 H4         28.0146   15.0594   59.6151 H         1             0.0730
     27 H5         29.7968   17.2604   57.6543 H         1             0.1356
     28 H6         29.0466   19.4946   56.9417 H         1             0.1365
     29 H7         27.2130   20.6186   58.1412 H         1             0.1283
     30 H8         25.8120   19.3861   61.3039 H         1             0.1370
     31 H9         25.9516   20.7824   60.2088 H         1             0.1330
     32 H10        23.5689   21.0958   60.2932 H         1             0.1358
     33 H11        22.4825   19.7405   59.9046 H         1             0.1398
     34 H12        24.3942   19.8731   62.2809 H         1             0.0615
     35 H13        22.6264   20.0720   62.3527 H         1             0.1243
     36 H14        24.2468   17.6278   63.7067 H         1             0.0572
     37 H15        22.6475   18.3871   63.8910 H         1             0.0995
     38 H16        20.6150   17.0914   63.5916 H         1             0.1354
     39 H17        19.5690   14.8655   63.7048 H         1             0.1407
     40 H18        23.4066   13.0443   63.2817 H         1             0.1394
     41 H19        24.4480   15.2718   63.1600 H         1             0.1285
     42 H20        25.3222   17.6938   61.6185 H         1             0.0616
     43 H21        24.2055   16.3640   61.2259 H         1             0.1258
     44 H22        23.3832   17.6251   59.2620 H         1             0.1404
     45 H23        25.1455   17.3931   59.1684 H         1             0.1361
     46 H24        26.8741   17.2696   60.7603 H         1             0.1308
@<TRIPOS>BOND
     1    1    2 1 
     2    1   24 1 
     3    1   25 1 
     4    1   26 1 
     5    2   23 ar
     6    2    3 ar
     7    3    4 ar
     8    3   27 1 
     9    4    5 ar
    10    4   28 1 
    11    5    6 ar
    12    5   29 1 
    13    6    7 1 
    14    6   23 ar
    15    7    8 1 
    16    7   30 1 
    17    7   31 1 
    18    8    9 1 
    19    8   22 1 
    20    8   10 1 
    21   10   11 1 
    22   10   32 1 
    23   10   33 1 
    24   11   12 1 
    25   11   34 1 
    26   11   35 1 
    27   12   13 1 
    28   12   21 1 
    29   13   14 1 
    30   13   36 1 
    31   13   37 1 
    32   14   20 ar
    33   14   15 ar
    34   15   16 ar
    35   15   38 1 
    36   16   17 ar
    37   16   39 1 
    38   17   18 1 
    39   17   19 ar
    40   19   20 ar
    41   19   40 1 
    42   20   41 1 
    43   21   22 1 
    44   21   42 1 
    45   21   43 1 
    46   22   44 1 
    47   22   45 1 
    48   23   46 1 
##########                 Name:            E13397107
##########          Protonation:                   16
##########               SMILES:   Cc1ccc(o1)C[NH+](C)CC(=O)NCc2ccc(cc2)F
##########            Long Name:   rophenyl)methylamino]-2-oxo-ethyl]-methyl-[(5-methyl-2-furyl)methyl]ammonium
##########          FlexRecCode: 1
##########               Number:                   30
##########   Ligand Source File: /raidb/db2/rgc/leads-emolecules-300/leads-emolecules-3-ae-0000011.db2.gz
##########           GlobalRank: 3416
##########                 Rank:                    1
##########               Setnum:                   73
##########             Matchnum:                 1353
##########                Cloud:                    1
##########        Electrostatic:           -17.684811
##########        Van der Waals:           -25.749107
##########  Ligand Polar Desolv:             5.971255
########## Ligand Apolar Desolv:            -3.012406
##########      Internal Energy:             0.000000
##########      Receptor Energy: 0.0
########## Receptor Desolvation:             0.000000
########## Receptor Hydrophobic:             0.000000
##########         Total Energy: -40.48
##########        Ligand Charge:             1.000000
##########            Arbitrary:    +999.9990
##########     heavy atom count:   21
##########           pose count:    1
##########        Ligand Energy:             0.000000
# num electro vdwattr vdwrepu polsolv apolsol rdesolv rhydroe totalscore fullpol fullapo
#   1    1.47   -1.03    0.17   -0.72   -0.18    0.00    0.00      -0.29   -1.74   -0.44
#   2    8.24   -1.26    0.57   -3.78    0.09    0.00    0.00       3.86  -11.24    0.28
#   3  -14.61   -0.10    0.03    3.77    0.16    0.00    0.00     -10.75   12.60    0.52
#   4    0.49   -0.67    0.08   -0.01   -0.12    0.00    0.00      -0.23   -0.04   -0.39
#   5   -4.74   -0.86    0.06    3.98   -0.20    0.00    0.00      -1.76   12.36   -0.62
#   6    4.32   -1.64    0.57   -3.72    0.11    0.00    0.00      -0.37  -11.68    0.33
#   7    4.38   -1.00    0.09   -5.86    0.84    0.00    0.00      -1.55  -16.23    2.33
#   8   -0.21   -1.12    0.21    1.32   -0.18    0.00    0.00       0.01    3.15   -0.44
#   9   -0.23   -1.66    0.36   -0.67   -0.17    0.00    0.00      -2.37   -1.49   -0.37
#  10   -0.37   -1.70    0.40   -0.41   -0.21    0.00    0.00      -2.28   -0.88   -0.45
#  11   -0.91   -1.60    0.23   -1.02   -0.28    0.00    0.00      -3.58   -1.73   -0.47
#  12    0.45   -2.07    0.34    0.07   -0.21    0.00    0.00      -1.42    0.11   -0.34
#  13   -0.10   -1.89    0.56   -0.46   -0.32    0.00    0.00      -2.21   -0.69   -0.48
#  14   -0.49   -2.60    0.67   -1.05   -0.28    0.00    0.00      -3.75   -1.76   -0.47
#  15   -0.05   -1.98    0.55   -0.43   -0.22    0.00    0.00      -2.13   -0.86   -0.45
#  16   -1.25   -0.59    0.05    0.99   -0.11    0.00    0.00      -0.91    3.44   -0.39
#  17    1.50   -0.99    0.12   -0.40   -0.08    0.00    0.00       0.15   -1.41   -0.28
#  18    0.97   -0.79    0.08   -0.89   -0.12    0.00    0.00      -0.75   -3.41   -0.44
#  19    1.32   -0.83    0.06   -1.10   -0.15    0.00    0.00      -0.71   -3.66   -0.51
#  20   -0.53   -1.21    0.22   -0.16   -0.10    0.00    0.00      -1.79   -0.52   -0.33
#  21    0.93   -0.84    0.12   -0.42   -0.07    0.00    0.00      -0.29   -1.13   -0.20
#  22    2.75   -1.56    0.66   -1.03    0.08    0.00    0.00       0.90   -3.22    0.25
#  23   -2.01   -0.25    0.02    1.46   -0.07    0.00    0.00      -0.84    5.65   -0.28
#  24   -3.54   -0.51    0.21    0.87   -0.08    0.00    0.00      -3.05    2.31   -0.22
#  25   -3.55   -0.37    0.07    0.77   -0.07    0.00    0.00      -3.15    2.15   -0.20
#  26   -2.84   -0.34    0.08    2.57   -0.08    0.00    0.00      -0.61    8.60   -0.28
#  27   -1.96   -0.15    0.01    1.29   -0.04    0.00    0.00      -0.85    8.92   -0.28
#  28   -2.88   -0.02    0.00    2.55    0.13    0.00    0.00      -0.22   11.23    0.56
#  29   -0.10   -0.60    0.40    0.45   -0.10    0.00    0.00       0.06    1.32   -0.28
#  30   -0.01   -0.46    0.11    0.48   -0.11    0.00    0.00       0.00    1.20   -0.28
#  31    1.32   -0.41    0.14    0.98   -0.09    0.00    0.00       1.92    2.88   -0.28
#  32    1.19   -0.31    0.03    0.46   -0.10    0.00    0.00       1.27    1.26   -0.28
#  33    0.96   -1.17    1.12    0.75   -0.16    0.00    0.00       1.50    1.31   -0.28
#  34   -0.20   -0.37    0.08    1.09   -0.10    0.00    0.00       0.49    3.04   -0.28
#  35   -1.83   -0.30    0.07    1.85   -0.06    0.00    0.00      -0.28    8.07   -0.28
#  36   -1.28   -0.10    0.00    0.69   -0.03    0.00    0.00      -0.72    6.70   -0.28
#  37   -0.89   -0.14    0.01    0.68   -0.04    0.00    0.00      -0.38    4.56   -0.28
#  38   -0.67   -0.17    0.01    0.27   -0.05    0.00    0.00      -0.60    1.59   -0.28
#  39   -1.31   -0.29    0.04    0.26   -0.08    0.00    0.00      -1.38    0.96   -0.28
#  40   -0.41   -0.20    0.01    0.21   -0.06    0.00    0.00      -0.44    1.03   -0.28
#  41   -0.99   -0.33    0.08    0.30   -0.07    0.00    0.00      -1.02    1.16   -0.28
@<TRIPOS>MOLECULE
E13397107
   41    42     0     0     0
SMALL
USER_CHARGES


@<TRIPOS>ATOM
      1 C1         22.6157   19.9245   60.4835 C.3       1            -0.0640
      2 N1         24.0591   19.8433   60.2222 N.4       1            -0.3746
      3 H1         24.2420   20.0965   59.2628 H         1             0.4338
      4 C2         24.5239   18.4709   60.4637 C.3       1            -0.0317
      5 C3         24.2507   18.0929   61.8968 C.2       1             0.5009
      6 O1         24.7481   18.7336   62.7984 O.2       1            -0.5251
      7 N2         23.4537   17.0426   62.1764 N.am      1            -0.6992
      8 C4         23.1883   16.6750   63.5695 C.3       1             0.1628
      9 C5         22.2758   15.4762   63.6076 C.ar      1            -0.1408
     10 C6         20.9048   15.6524   63.6292 C.ar      1            -0.0669
     11 C7         20.0669   14.5539   63.6641 C.ar      1            -0.1546
     12 C8         20.6012   13.2766   63.6770 C.ar      1             0.1211
     13 F1         19.7830   12.2020   63.7106 F         1            -0.1303
     14 C9         21.9744   13.1015   63.6548 C.ar      1            -0.1547
     15 C10        22.8102   14.2014   63.6151 C.ar      1            -0.0669
     16 C11        24.7711   20.7660   61.1165 C.3       1             0.0934
     17 C12        24.6840   22.1663   60.5662 C.2       1            -0.1178
     18 C13        25.5553   22.7310   59.7111 C.2       1            -0.1307
     19 C14        25.0922   24.0434   59.4617 C.2       1            -0.2225
     20 C15        23.9657   24.2021   60.1793 C.2       1             0.0494
     21 C16        23.1187   25.4477   60.2262 C.3       1            -0.0907
     22 O2         23.7200   23.0599   60.8418 O.3       1            -0.1675
     23 H2         22.4181   19.6511   61.5198 H         1             0.1217
     24 H3         22.2707   20.9428   60.3041 H         1             0.1255
     25 H4         22.0873   19.2398   59.8200 H         1             0.1425
     26 H5         23.9955   17.7862   59.8004 H         1             0.1622
     27 H6         25.5948   18.4106   60.2700 H         1             0.1628
     28 H7         23.0559   16.5303   61.4554 H         1             0.4125
     29 H8         24.1276   16.4325   64.0666 H         1             0.0905
     30 H9         22.7116   17.5110   64.0814 H         1             0.0905
     31 H10        20.4883   16.6488   63.6191 H         1             0.1360
     32 H11        18.9959   14.6917   63.6816 H         1             0.1428
     33 H12        22.3922   12.1056   63.6651 H         1             0.1428
     34 H13        23.8813   14.0649   63.5937 H         1             0.1359
     35 H14        24.3165   20.7358   62.1065 H         1             0.1573
     36 H15        25.8172   20.4682   61.1876 H         1             0.1462
     37 H16        26.4392   22.2705   59.2953 H         1             0.1616
     38 H17        25.5545   24.7777   58.8186 H         1             0.1633
     39 H18        22.2698   25.2851   60.8903 H         1             0.0957
     40 H19        23.7166   26.2798   60.5977 H         1             0.0854
     41 H20        22.7570   25.6791   59.2243 H         1             0.1016
@<TRIPOS>BOND
     1    1    2 1 
     2    1   23 1 
     3    1   24 1 
     4    1   25 1 
     5    2    3 1 
     6    2    4 1 
     7    2   16 1 
     8    4    5 1 
     9    4   26 1 
    10    4   27 1 
    11    5    6 2 
    12    5    7 am
    13    7    8 1 
    14    7   28 1 
    15    8    9 1 
    16    8   29 1 
    17    8   30 1 
    18    9   15 ar
    19    9   10 ar
    20   10   11 ar
    21   10   31 1 
    22   11   12 ar
    23   11   32 1 
    24   12   13 1 
    25   12   14 ar
    26   14   15 ar
    27   14   33 1 
    28   15   34 1 
    29   16   17 1 
    30   16   35 1 
    31   16   36 1 
    32   17   22 1 
    33   17   18 2 
    34   18   19 1 
    35   18   37 1 
    36   19   20 2 
    37   19   38 1 
    38   20   21 1 
    39   20   22 1 
    40   21   39 1 
    41   21   40 1 
    42   21   41 1 
##########                 Name:             E4421963
##########          Protonation:                   90
##########               SMILES:   c1ccc(c(c1)c2nc(nc(n2)N)c3ccccc3O)O
##########            Long Name:   2-[4-amino-6-(2-hydroxyphenyl)-1,3,5-triazin-2-yl]phenol
##########          FlexRecCode: 1
##########               Number:                  800
##########   Ligand Source File: /raidb/db2/rgc/leads-emolecules-300/leads-lt300-emolecules-1j-0000068.db2.gz
##########           GlobalRank: 3416
##########                 Rank:                    1
##########               Setnum:                   88
##########             Matchnum:                 4806
##########                Cloud:                    1
##########        Electrostatic:            -9.699302
##########        Van der Waals:           -34.289070
##########  Ligand Polar Desolv:             5.869002
########## Ligand Apolar Desolv:            -2.361832
##########      Internal Energy:             0.000000
##########      Receptor Energy: 0.0
########## Receptor Desolvation:             0.000000
########## Receptor Hydrophobic:             0.000000
##########         Total Energy: -40.48
##########        Ligand Charge:             0.000000
##########            Arbitrary:    +999.9990
##########     heavy atom count:   21
##########           pose count:    1
##########        Ligand Energy:             0.000000
# num electro vdwattr vdwrepu polsolv apolsol rdesolv rhydroe totalscore fullpol fullapo
#   1   -3.75   -4.86    2.89    0.50    0.64    0.00    0.00      -4.59    0.74    0.95
#   2    2.24   -2.09    0.34   -2.02   -3.10    0.00    0.00      -4.64   -3.25   -4.98
#   3   -2.65   -2.39    0.72    2.42    0.99    0.00    0.00      -0.92    4.00    1.63
#   4    4.06   -1.82    0.31   -1.80   -1.23    0.00    0.00      -0.48   -3.09   -2.11
#   5   -6.57   -1.85    0.38    2.33    0.85    0.00    0.00      -4.86    4.49    1.64
#   6    2.19   -1.62    0.40   -1.46   -1.00    0.00    0.00      -1.48   -3.09   -2.11
#   7   -1.73   -1.87    0.74    2.27    0.93    0.00    0.00       0.34    4.00    1.63
#   8   -0.04   -1.46    0.31    0.29   -0.18    0.00    0.00      -1.07    0.67   -0.41
#   9    0.07   -1.55    0.24    0.07   -0.19    0.00    0.00      -1.36    0.16   -0.45
#  10    0.85   -1.43    0.23   -0.04   -0.18    0.00    0.00      -0.57   -0.10   -0.47
#  11    0.80   -0.97    0.05   -0.04   -0.18    0.00    0.00      -0.34   -0.10   -0.47
#  12    1.98   -1.15    0.09    0.03   -0.20    0.00    0.00       0.75    0.06   -0.46
#  13   -0.72   -1.57    0.41   -0.22   -0.13    0.00    0.00      -2.24   -0.50   -0.31
#  14    1.34   -2.10    0.75    0.84    0.49    0.00    0.00       1.32    1.70    0.98
#  15   -1.02   -2.22    0.61    0.42   -0.26    0.00    0.00      -2.47    0.67   -0.41
#  16   -0.32   -2.74    0.62    0.10   -0.29    0.00    0.00      -2.63    0.16   -0.45
#  17   -1.05   -3.13    0.95   -0.07   -0.31    0.00    0.00      -3.60   -0.10   -0.47
#  18   -0.94   -2.52    0.68   -0.06   -0.30    0.00    0.00      -3.14   -0.10   -0.47
#  19   -2.39   -2.76    0.90    0.04   -0.28    0.00    0.00      -4.49    0.06   -0.46
#  20    2.50   -2.64    0.77   -0.30   -0.18    0.00    0.00       0.15   -0.50   -0.31
#  21   -6.06   -3.57    2.17    1.02    0.59    0.00    0.00      -5.85    1.70    0.98
#  22    4.51   -0.14    0.02    0.27    0.37    0.00    0.00       5.04    0.44    0.60
#  23   -0.30   -0.13    0.01    0.29    0.39    0.00    0.00       0.27    0.45    0.60
#  24    0.15   -0.51    0.23   -0.13   -0.10    0.00    0.00      -0.36   -0.37   -0.27
#  25   -1.01   -0.65    0.70    0.19   -0.08    0.00    0.00      -0.85    0.66   -0.28
#  26   -1.77   -0.16    0.01    0.13   -0.04    0.00    0.00      -1.83    0.90   -0.28
#  27   -2.57   -0.24    0.02    0.08   -0.09    0.00    0.00      -2.81    0.26   -0.28
#  28   -3.78   -0.04    0.00   -0.04    0.57    0.00    0.00      -3.29   -0.09    1.22
#  29    0.43   -0.70    0.21   -0.22   -0.16    0.00    0.00      -0.44   -0.37   -0.27
#  30    0.30   -0.91    0.40    0.41   -0.17    0.00    0.00       0.02    0.66   -0.28
#  31    1.57   -0.42    0.06    0.48   -0.15    0.00    0.00       1.54    0.90   -0.28
#  32    1.43   -0.76    0.56    0.14   -0.15    0.00    0.00       1.22    0.26   -0.28
#  33    2.55   -0.11    0.01   -0.06    0.78    0.00    0.00       3.17   -0.09    1.22
@<TRIPOS>MOLECULE
E4421963
   33    35     0     0     0
SMALL
USER_CHARGES


@<TRIPOS>ATOM
      1 N1         20.9337   11.9375   63.6771 N.pl3     1            -0.8036
      2 C1         20.4967   13.2451   63.7435 C.ar      1             0.6005
      3 N2         19.2996   13.5204   64.2512 N.ar      1            -0.5851
      4 C2         18.8779   14.7807   64.3159 C.ar      1             0.4480
      5 N3         19.6548   15.7654   63.8722 N.ar      1            -0.5864
      6 C3         20.8530   15.4891   63.3641 C.ar      1             0.4480
      7 N4         21.2754   14.2288   63.3046 N.ar      1            -0.5850
      8 C4         21.7183   16.5844   62.8695 C.ar      1            -0.0890
      9 C5         22.9778   16.7905   63.4315 C.ar      1            -0.0466
     10 C6         23.7795   17.8120   62.9672 C.ar      1            -0.1425
     11 C7         23.3389   18.6351   61.9447 C.ar      1            -0.0742
     12 C8         22.0936   18.4408   61.3802 C.ar      1            -0.1612
     13 C9         21.2786   17.4139   61.8321 C.ar      1             0.1652
     14 O1         20.0567   17.2178   61.2741 O.3       1            -0.4726
     15 C10        17.5439   15.0873   64.8811 C.ar      1            -0.0890
     16 C11        17.2453   14.7433   66.1991 C.ar      1            -0.0466
     17 C12        16.0015   15.0312   66.7203 C.ar      1            -0.1425
     18 C13        15.0463   15.6604   65.9400 C.ar      1            -0.0742
     19 C14        15.3304   16.0059   64.6334 C.ar      1            -0.1612
     20 C15        16.5787   15.7288   64.0970 C.ar      1             0.1652
     21 O2         16.8613   16.0733   62.8148 O.3       1            -0.4726
     22 H1         21.8097   11.7368   63.3121 H         1             0.4185
     23 H2         20.3664   11.2195   63.9991 H         1             0.4185
     24 H3         23.3247   16.1513   64.2298 H         1             0.1419
     25 H4         24.7548   17.9708   63.4032 H         1             0.1333
     26 H5         23.9723   19.4334   61.5868 H         1             0.1320
     27 H6         21.7559   19.0862   60.5829 H         1             0.1356
     28 H7         19.8433   17.8407   60.5660 H         1             0.3913
     29 H8         17.9874   14.2517   66.8108 H         1             0.1419
     30 H9         15.7714   14.7643   67.7413 H         1             0.1333
     31 H10        14.0743   15.8820   66.3553 H         1             0.1321
     32 H11        14.5809   16.4967   64.0301 H         1             0.1356
     33 H12        16.1318   16.5112   62.3554 H         1             0.3913
@<TRIPOS>BOND
     1    1    2 1 
     2    1   22 1 
     3    1   23 1 
     4    2    7 ar
     5    2    3 ar
     6    3    4 ar
     7    4    5 ar
     8    4   15 1 
     9    5    6 ar
    10    6    7 ar
    11    6    8 1 
    12    8   13 ar
    13    8    9 ar
    14    9   10 ar
    15    9   24 1 
    16   10   11 ar
    17   10   25 1 
    18   11   12 ar
    19   11   26 1 
    20   12   13 ar
    21   12   27 1 
    22   13   14 1 
    23   14   28 1 
    24   15   20 ar
    25   15   16 ar
    26   16   17 ar
    27   16   29 1 
    28   17   18 ar
    29   17   30 1 
    30   18   19 ar
    31   18   31 1 
    32   19   20 ar
    33   19   32 1 
    34   20   21 1 
    35   21   33 1 
##########                 Name:            E44854496
##########          Protonation:                   13
##########               SMILES:   CC/C=C(\C)/C[NH+]1CC[C@@H](C1)CNC(=O)c2[nH]cnn2
##########            Long Name:   hylpent-2-enyl]pyrrolidin-1-ium-3-yl]methyl]-4H-1,2,4-triazole-3-carboxamide
##########          FlexRecCode: 1
##########               Number:                   10
##########   Ligand Source File: /raidb/db2/rgc/leads-emolecules-300/leads-lt300-emolecules-1i-0000066.db2.gz
##########           GlobalRank: 3449
##########                 Rank:                    1
##########               Setnum:                   18
##########             Matchnum:                 3204
##########                Cloud:                    1
##########        Electrostatic:           -23.790953
##########        Van der Waals:           -23.345598
##########  Ligand Polar Desolv:             9.129183
########## Ligand Apolar Desolv:            -2.448578
##########      Internal Energy:             0.000000
##########      Receptor Energy: 0.0
########## Receptor Desolvation:             0.000000
########## Receptor Hydrophobic:             0.000000
##########         Total Energy: -40.46
##########        Ligand Charge:             1.000000
##########            Arbitrary:    +999.9990
##########     heavy atom count:   20
##########           pose count:    1
##########        Ligand Energy:             0.000000
# num electro vdwattr vdwrepu polsolv apolsol rdesolv rhydroe totalscore fullpol fullapo
#   1   -0.44   -0.92    0.32   -0.65   -0.06    0.00    0.00      -1.75   -2.02   -0.19
#   2   -0.20   -0.45    0.03   -0.47   -0.07    0.00    0.00      -1.16   -1.87   -0.26
#   3    0.31   -1.10    0.25   -0.75   -0.10    0.00    0.00      -1.39   -2.77   -0.38
#   4    2.39   -0.88    0.09   -1.00   -0.10    0.00    0.00       0.50   -3.65   -0.35
#   5    1.03   -0.55    0.10   -0.71   -0.04    0.00    0.00      -0.18   -3.05   -0.19
#   6   -1.02   -1.25    0.38    0.67   -0.13    0.00    0.00      -1.35    1.90   -0.36
#   7    8.92   -1.24    0.40   -4.21    0.15    0.00    0.00       4.02  -11.72    0.42
#   8  -11.49   -0.04    0.00    3.82    0.14    0.00    0.00      -7.57   15.33    0.56
#   9    0.08   -1.23    0.29    0.09   -0.18    0.00    0.00      -0.95    0.19   -0.39
#  10    2.01   -0.76    0.05   -1.78   -0.12    0.00    0.00      -0.60   -3.98   -0.27
#  11    1.29   -0.59    0.03   -1.05   -0.07    0.00    0.00      -0.40   -2.82   -0.20
#  12   -0.58   -1.09    0.16    0.91   -0.15    0.00    0.00      -0.75    2.19   -0.36
#  13    0.73   -1.47    0.20   -4.36    0.93    0.00    0.00      -3.99  -10.51    2.23
#  14    1.72   -1.65    0.37    2.67   -0.29    0.00    0.00       2.82    6.17   -0.66
#  15   -3.74   -2.08    0.82   -2.01    0.19    0.00    0.00      -6.82   -4.38    0.42
#  16    0.41   -1.67    0.41    0.46   -1.21    0.00    0.00      -1.60    0.84   -2.22
#  17   -0.56   -2.04    0.41   -0.98    0.66    0.00    0.00      -2.52   -1.76    1.18
#  18   -1.30   -3.05    0.80   -1.37    0.81    0.00    0.00      -4.11   -2.14    1.27
#  19    0.61   -2.47    0.50    1.32   -2.15    0.00    0.00      -2.18    2.07   -3.36
#  20   -3.00   -1.63    0.20   -3.20    0.72    0.00    0.00      -6.91   -5.38    1.21
#  21   -0.04   -0.64    0.05    0.25   -0.14    0.00    0.00      -0.52    0.76   -0.43
#  22    0.21   -0.35    0.21    0.04   -0.07    0.00    0.00       0.03    0.15   -0.28
#  23    0.17   -0.41    0.38    0.21   -0.08    0.00    0.00       0.27    0.76   -0.28
#  24    0.17   -0.42    0.18    0.16   -0.08    0.00    0.00       0.02    0.58   -0.28
#  25    0.04   -0.12    0.01    0.12   -0.03    0.00    0.00       0.01    0.98   -0.28
#  26    0.15   -0.10    0.00    0.08   -0.02    0.00    0.00       0.12    0.88   -0.20
#  27   -0.63   -0.72    1.20    0.96   -0.07    0.00    0.00       0.74    3.62   -0.28
#  28   -1.26   -0.60    0.98    0.15   -0.07    0.00    0.00      -0.80    0.62   -0.28
#  29   -0.27   -0.13    0.01    0.38   -0.04    0.00    0.00      -0.05    2.72   -0.28
#  30   -0.40   -0.08    0.00    0.06   -0.02    0.00    0.00      -0.43    0.78   -0.23
#  31   -3.50   -0.62    0.62    1.86   -0.10    0.00    0.00      -1.74    5.43   -0.28
#  32   -3.51   -0.94    1.03    1.93   -0.10    0.00    0.00      -1.59    4.96   -0.26
#  33   -3.65   -0.57    0.35    1.72   -0.10    0.00    0.00      -2.24    4.42   -0.26
#  34   -3.89   -0.60    0.21    1.77   -0.12    0.00    0.00      -2.63    4.02   -0.27
#  35   -1.32   -0.32    0.06    0.51   -0.08    0.00    0.00      -1.15    1.63   -0.27
#  36   -1.15   -0.29    0.05    0.80   -0.09    0.00    0.00      -0.67    2.60   -0.28
#  37   -1.22   -0.16    0.01    0.56   -0.04    0.00    0.00      -0.85    3.49   -0.28
#  38   -0.52   -0.72    0.59    0.53   -0.10    0.00    0.00      -0.22    1.49   -0.28
#  39   -0.27   -0.46    0.09    0.78   -0.12    0.00    0.00       0.02    1.82   -0.28
#  40   -0.58   -0.02    0.00    1.93    0.15    0.00    0.00       1.48    7.12    0.54
#  41   -0.02   -0.82    0.48    2.76   -0.17    0.00    0.00       2.24    4.55   -0.28
#  42    3.66   -0.02    0.00    2.04    0.21    0.00    0.00       5.90    5.67    0.59
#  43   -1.40   -0.14    0.01    0.83   -0.04    0.00    0.00      -0.73    6.11   -0.28
#  44   -1.71   -0.40    0.13    1.30   -0.07    0.00    0.00      -0.75    5.05   -0.27
@<TRIPOS>MOLECULE
E44854496
   44    45     0     0     0
SMALL
USER_CHARGES


@<TRIPOS>ATOM
      1 C1         26.2681   24.3650   63.1983 C.3       1            -0.1521
      2 C2         26.4012   23.4587   61.9729 C.3       1            -0.1160
      3 C3         25.0422   22.9348   61.5857 C.2       1            -0.0747
      4 C4         24.9179   22.1337   60.5567 C.2       1            -0.2079
      5 C5         26.1082   21.8441   59.6790 C.3       1            -0.1257
      6 C6         23.5845   21.5016   60.2506 C.3       1             0.0451
      7 N1         23.7134   20.0391   60.2985 N.4       1            -0.3943
      8 H1         24.3919   19.7335   59.6170 H         1             0.4286
      9 C7         22.4186   19.4194   60.0191 C.3       1            -0.0032
     10 C8         22.0696   18.5539   61.2361 C.3       1            -0.1491
     11 C9         23.4668   18.2460   61.8174 C.3       1            -0.1245
     12 C10        23.3804   17.8570   63.2946 C.3       1             0.1274
     13 N2         22.9736   16.4541   63.4071 N.am      1            -0.7106
     14 C11        21.6660   16.1354   63.4793 C.2       1             0.6188
     15 O1         20.8240   17.0124   63.4510 O.2       1            -0.5211
     16 C12        21.2565   14.7235   63.5924 C.2       1             0.1114
     17 N3         22.0541   13.6780   63.6396 N.2       1            -0.2371
     18 N4         21.3501   12.6066   63.7393 N.2       1            -0.2881
     19 C13        20.0752   12.9093   63.7608 C.2       1             0.1969
     20 N5         19.9721   14.2504   63.6744 N.pl3     1            -0.5458
     21 C14        24.1357   19.6219   61.6404 C.3       1             0.0028
     22 H2         27.2509   24.7439   63.4785 H         1             0.0679
     23 H3         25.6101   25.2013   62.9620 H         1             0.0593
     24 H4         25.8484   23.7955   64.0277 H         1             0.0584
     25 H5         26.8209   24.0281   61.1437 H         1             0.0854
     26 H6         27.0591   22.6224   62.2093 H         1             0.0825
     27 H7         24.1709   23.2199   62.1565 H         1             0.1187
     28 H8         25.8140   21.1626   58.8809 H         1             0.0808
     29 H9         26.4749   22.7745   59.2456 H         1             0.0623
     30 H10        26.8967   21.3857   60.2759 H         1             0.0804
     31 H11        22.8506   21.8260   60.9885 H         1             0.1361
     32 H12        23.2582   21.8053   59.2559 H         1             0.1304
     33 H13        21.6595   20.1888   59.8786 H         1             0.1310
     34 H14        22.4875   18.7976   59.1265 H         1             0.1347
     35 H15        21.4649   19.1121   61.9507 H         1             0.1151
     36 H16        21.5645   17.6376   60.9305 H         1             0.1068
     37 H17        23.9759   17.4764   61.2373 H         1             0.1194
     38 H18        24.3552   17.9912   63.7632 H         1             0.0884
     39 H19        22.6467   18.4893   63.7945 H         1             0.0843
     40 H20        23.6452   15.7546   63.4296 H         1             0.4173
     41 H21        19.2553   12.2106   63.8380 H         1             0.2375
     42 H22        19.1556   14.7740   63.6692 H         1             0.4431
     43 H23        25.2206   19.5290   61.6902 H         1             0.1416
     44 H24        23.7758   20.3243   62.3922 H         1             0.1376
@<TRIPOS>BOND
     1    1    2 1 
     2    1   22 1 
     3    1   23 1 
     4    1   24 1 
     5    2    3 1 
     6    2   25 1 
     7    2   26 1 
     8    3    4 2 
     9    3   27 1 
    10    4    5 1 
    11    4    6 1 
    12    5   28 1 
    13    5   29 1 
    14    5   30 1 
    15    6    7 1 
    16    6   31 1 
    17    6   32 1 
    18    7    8 1 
    19    7   21 1 
    20    7    9 1 
    21    9   10 1 
    22    9   33 1 
    23    9   34 1 
    24   10   11 1 
    25   10   35 1 
    26   10   36 1 
    27   11   12 1 
    28   11   21 1 
    29   11   37 1 
    30   12   13 1 
    31   12   38 1 
    32   12   39 1 
    33   13   14 am
    34   13   40 1 
    35   14   15 2 
    36   14   16 1 
    37   16   20 1 
    38   16   17 2 
    39   17   18 1 
    40   18   19 2 
    41   19   20 1 
    42   19   41 1 
    43   20   42 1 
    44   21   43 1 
    45   21   44 1 
##########                 Name:            E44855542
##########          Protonation:                   98
##########               SMILES:   CC/C=C(\C)/C[NH+]1CC[C@@H](C1)CNC(=O)c2cncs2
##########            Long Name:   [(E)-2-methylpent-2-enyl]pyrrolidin-1-ium-3-yl]methyl]thiazole-5-carboxamide
##########          FlexRecCode: 1
##########               Number:                  529
##########   Ligand Source File: /raidb/db2/rgc/leads-emolecules-300/leads-emolecules-2f-0000412.db2.gz
##########           GlobalRank: 3466
##########                 Rank:                    1
##########               Setnum:                  167
##########             Matchnum:                  373
##########                Cloud:                    1
##########        Electrostatic:           -24.223394
##########        Van der Waals:           -24.329363
##########  Ligand Polar Desolv:            10.041306
########## Ligand Apolar Desolv:            -1.943139
##########      Internal Energy:             0.000000
##########      Receptor Energy: 0.0
########## Receptor Desolvation:             0.000000
########## Receptor Hydrophobic:             0.000000
##########         Total Energy: -40.45
##########        Ligand Charge:             1.000000
##########            Arbitrary:    +999.9990
##########     heavy atom count:   20
##########           pose count:    1
##########        Ligand Energy:             0.000000
# num electro vdwattr vdwrepu polsolv apolsol rdesolv rhydroe totalscore fullpol fullapo
#   1   -0.45   -0.87    0.28   -0.68   -0.06    0.00    0.00      -1.77   -2.08   -0.19
#   2   -0.23   -0.44    0.03   -0.47   -0.06    0.00    0.00      -1.18   -1.90   -0.26
#   3    0.17   -0.92    0.13   -0.72   -0.10    0.00    0.00      -1.43   -2.80   -0.39
#   4    1.98   -0.75    0.06   -0.94   -0.09    0.00    0.00       0.25   -3.68   -0.35
#   5    0.85   -0.46    0.05   -0.67   -0.04    0.00    0.00      -0.27   -3.12   -0.19
#   6   -0.92   -1.05    0.25    0.63   -0.12    0.00    0.00      -1.21    1.88   -0.36
#   7    8.54   -1.16    0.35   -4.07    0.14    0.00    0.00       3.80  -11.86    0.42
#   8  -10.78   -0.04    0.00    3.56    0.13    0.00    0.00      -7.13   15.80    0.56
#   9    0.07   -1.22    0.31    0.05   -0.17    0.00    0.00      -0.96    0.11   -0.39
#  10    2.11   -0.76    0.05   -1.86   -0.12    0.00    0.00      -0.58   -4.20   -0.27
#  11    1.29   -0.59    0.03   -1.06   -0.07    0.00    0.00      -0.41   -2.87   -0.20
#  12   -0.59   -1.15    0.18    0.91   -0.15    0.00    0.00      -0.80    2.17   -0.36
#  13    0.68   -1.51    0.20   -4.81    0.93    0.00    0.00      -4.50  -11.48    2.23
#  14    1.97   -1.72    0.42    2.54   -0.29    0.00    0.00       2.92    5.77   -0.65
#  15   -3.91   -2.54    1.57   -1.27    0.19    0.00    0.00      -5.97   -2.75    0.41
#  16   -1.25   -1.64    0.38   -1.39   -0.17    0.00    0.00      -4.06   -2.67   -0.32
#  17    0.38   -1.96    0.44    0.07   -0.56    0.00    0.00      -1.64    0.12   -0.98
#  18   -2.08   -2.74    0.56   -1.80    1.33    0.00    0.00      -4.73   -2.81    2.08
#  19    0.16   -2.88    0.88    0.04   -0.51    0.00    0.00      -2.32    0.06   -0.79
#  20    0.97   -2.91    0.62    2.65   -0.47    0.00    0.00       0.87    4.52   -0.80
#  21   -0.03   -0.65    0.05    0.21   -0.13    0.00    0.00      -0.55    0.66   -0.43
#  22    0.21   -0.33    0.12    0.04   -0.07    0.00    0.00      -0.03    0.17   -0.28
#  23    0.17   -0.48    0.70    0.20   -0.07    0.00    0.00       0.52    0.77   -0.28
#  24    0.17   -0.33    0.09    0.14   -0.07    0.00    0.00       0.01    0.56   -0.28
#  25    0.09   -0.12    0.01    0.15   -0.04    0.00    0.00       0.08    1.08   -0.28
#  26    0.19   -0.09    0.00    0.08   -0.02    0.00    0.00       0.16    0.92   -0.20
#  27    0.00   -0.47    0.33    0.89   -0.07    0.00    0.00       0.69    3.62   -0.28
#  28   -1.05   -0.40    0.33    0.13   -0.06    0.00    0.00      -1.04    0.61   -0.28
#  29   -0.21   -0.11    0.01    0.34   -0.03    0.00    0.00      -0.01    2.81   -0.28
#  30   -0.32   -0.07    0.00    0.06   -0.02    0.00    0.00      -0.35    0.86   -0.23
#  31   -3.23   -0.57    0.59    1.69   -0.09    0.00    0.00      -1.62    5.36   -0.28
#  32   -3.05   -0.67    0.44    1.70   -0.09    0.00    0.00      -1.67    4.79   -0.26
#  33   -3.78   -0.59    0.38    1.66   -0.10    0.00    0.00      -2.43    4.27   -0.26
#  34   -3.97   -0.61    0.25    1.84   -0.11    0.00    0.00      -2.60    4.33   -0.27
#  35   -1.44   -0.34    0.06    0.58   -0.09    0.00    0.00      -1.22    1.82   -0.27
#  36   -1.22   -0.25    0.03    1.01   -0.09    0.00    0.00      -0.51    3.33   -0.28
#  37   -1.20   -0.15    0.01    0.60   -0.04    0.00    0.00      -0.78    3.99   -0.28
#  38   -0.51   -0.79    0.74    0.43   -0.10    0.00    0.00      -0.24    1.17   -0.28
#  39   -0.29   -0.49    0.10    0.65   -0.12    0.00    0.00      -0.15    1.48   -0.28
#  40   -0.46   -0.02    0.00    2.36    0.15    0.00    0.00       2.02    8.61    0.53
#  41    0.12   -0.37    0.07    0.13   -0.12    0.00    0.00      -0.18    0.30   -0.28
#  42   -0.50   -1.18    1.40    2.38   -0.18    0.00    0.00       1.92    3.74   -0.28
#  43   -1.30   -0.14    0.01    0.84   -0.04    0.00    0.00      -0.64    6.11   -0.28
#  44   -1.60   -0.41    0.13    1.23   -0.07    0.00    0.00      -0.72    4.69   -0.27
@<TRIPOS>MOLECULE
E44855542
   44    45     0     0     0
SMALL
USER_CHARGES


@<TRIPOS>ATOM
      1 C1         26.6765   24.2826   63.3247 C.3       1            -0.1522
      2 C2         26.7716   23.3742   62.0973 C.3       1            -0.1158
      3 C3         25.3886   22.9380   61.6869 C.2       1            -0.0747
      4 C4         25.2303   22.1501   60.6525 C.2       1            -0.2079
      5 C5         26.4137   21.7896   59.7919 C.3       1            -0.1257
      6 C6         23.8649   21.6041   60.3231 C.3       1             0.0449
      7 N1         23.9011   20.1361   60.3663 N.4       1            -0.3942
      8 H1         24.5696   19.7912   59.6938 H         1             0.4281
      9 C7         22.5746   19.5999   60.0644 C.3       1            -0.0030
     10 C8         22.1533   18.7535   61.2720 C.3       1            -0.1492
     11 C9         23.5192   18.3567   61.8731 C.3       1            -0.1244
     12 C10        23.3857   17.9686   63.3471 C.3       1             0.1274
     13 N2         22.8901   16.5936   63.4470 N.am      1            -0.7317
     14 C11        21.5641   16.3573   63.4977 C.2       1             0.6194
     15 O1         20.7787   17.2860   63.4606 O.2       1            -0.5103
     16 C12        21.0679   14.9806   63.5977 C.2       1            -0.2917
     17 C13        21.7665   13.7950   63.6593 C.2       1             0.1334
     18 N3         21.0543   12.6991   63.7457 N.2       1            -0.5197
     19 C14        19.7413   12.7318   63.7721 C.2       1             0.0658
     20 S1         19.3897   14.3752   63.6812 S.3       1             0.1448
     21 C15        24.2756   19.6886   61.7126 C.3       1             0.0025
     22 H2         27.6768   24.5981   63.6216 H         1             0.0679
     23 H3         26.0762   25.1595   63.0822 H         1             0.0594
     24 H4         26.2090   23.7378   64.1448 H         1             0.0586
     25 H5         27.2390   23.9191   61.2772 H         1             0.0852
     26 H6         27.3720   22.4975   62.3399 H         1             0.0825
     27 H7         24.5280   23.2753   62.2457 H         1             0.1188
     28 H8         26.0897   21.1308   58.9862 H         1             0.0810
     29 H9         26.8448   22.6967   59.3684 H         1             0.0622
     30 H10        27.1625   21.2805   60.3986 H         1             0.0803
     31 H11        23.1414   21.9713   61.0511 H         1             0.1362
     32 H12        23.5739   21.9312   59.3250 H         1             0.1307
     33 H13        21.8674   20.4158   59.9157 H         1             0.1315
     34 H14        22.6183   18.9782   59.1702 H         1             0.1344
     35 H15        21.5735   19.3460   61.9797 H         1             0.1148
     36 H16        21.5965   17.8718   60.9544 H         1             0.1046
     37 H17        23.9881   17.5588   61.2974 H         1             0.1169
     38 H18        24.3596   18.0399   63.8313 H         1             0.0867
     39 H19        22.6854   18.6439   63.8386 H         1             0.0826
     40 H20        23.5161   15.8534   63.4765 H         1             0.4030
     41 H21        22.8460   13.7703   63.6372 H         1             0.1876
     42 H22        19.0524   11.9027   63.8402 H         1             0.2298
     43 H23        25.3517   19.5278   61.7786 H         1             0.1414
     44 H24        23.9487   20.4095   62.4620 H         1             0.1382
@<TRIPOS>BOND
     1    1    2 1 
     2    1   22 1 
     3    1   23 1 
     4    1   24 1 
     5    2    3 1 
     6    2   25 1 
     7    2   26 1 
     8    3    4 2 
     9    3   27 1 
    10    4    5 1 
    11    4    6 1 
    12    5   28 1 
    13    5   29 1 
    14    5   30 1 
    15    6    7 1 
    16    6   31 1 
    17    6   32 1 
    18    7    8 1 
    19    7   21 1 
    20    7    9 1 
    21    9   10 1 
    22    9   33 1 
    23    9   34 1 
    24   10   11 1 
    25   10   35 1 
    26   10   36 1 
    27   11   12 1 
    28   11   21 1 
    29   11   37 1 
    30   12   13 1 
    31   12   38 1 
    32   12   39 1 
    33   13   14 am
    34   13   40 1 
    35   14   15 2 
    36   14   16 1 
    37   16   20 1 
    38   16   17 2 
    39   17   18 1 
    40   17   41 1 
    41   18   19 2 
    42   19   20 1 
    43   19   42 1 
    44   21   43 1 
    45   21   44 1 
##########                 Name:            E17204830
##########          Protonation:                   24
##########               SMILES:   C[C@@H](C(=O)NCc1ccc(cc1)F)[NH+](C)Cc2ccco2
##########            Long Name:   orophenyl)methylamino]-1-methyl-2-oxo-ethyl]-(2-furylmethyl)-methyl-ammonium
##########          FlexRecCode: 1
##########               Number:                  592
##########   Ligand Source File: /raidb/db2/rgc/leads-emolecules-300/leads-emolecules-3-ak-0000004.db2.gz
##########           GlobalRank: 3466
##########                 Rank:                    1
##########               Setnum:                  119
##########             Matchnum:                 3708
##########                Cloud:                    1
##########        Electrostatic:           -22.410528
##########        Van der Waals:           -23.375338
##########  Ligand Polar Desolv:             8.105741
########## Ligand Apolar Desolv:            -2.766628
##########      Internal Energy:             0.000000
##########      Receptor Energy: 0.0
########## Receptor Desolvation:             0.000000
########## Receptor Hydrophobic:             0.000000
##########         Total Energy: -40.45
##########        Ligand Charge:             1.000000
##########            Arbitrary:    +999.9990
##########     heavy atom count:   21
##########           pose count:    1
##########        Ligand Energy:             0.000000
# num electro vdwattr vdwrepu polsolv apolsol rdesolv rhydroe totalscore fullpol fullapo
#   1    4.37   -1.66    0.54   -2.63   -0.08    0.00    0.00       0.54   -5.60   -0.17
#   2   -0.12   -0.99    0.14    0.61   -0.09    0.00    0.00      -0.45    1.42   -0.22
#   3    8.73   -1.38    0.59   -3.73    0.05    0.00    0.00       4.27  -10.64    0.15
#   4  -15.02   -0.10    0.03    3.94    0.17    0.00    0.00     -10.99   12.17    0.52
#   5    0.75   -0.53    0.05   -0.41   -0.12    0.00    0.00      -0.26   -1.46   -0.45
#   6   -1.71   -1.10    0.35    1.00   -0.13    0.00    0.00      -1.60    2.94   -0.37
#   7    1.28   -0.99    0.13   -0.37   -0.07    0.00    0.00      -0.02   -1.29   -0.25
#   8    0.64   -0.54    0.02   -0.77   -0.11    0.00    0.00      -0.76   -3.63   -0.51
#   9    0.57   -0.62    0.03   -1.01   -0.13    0.00    0.00      -1.16   -4.04   -0.51
#  10   -0.07   -0.96    0.09   -0.20   -0.09    0.00    0.00      -1.23   -0.63   -0.27
#  11    1.20   -1.22    0.23   -1.11    0.08    0.00    0.00      -0.81   -3.31    0.24
#  12   -6.54   -1.34    0.16    5.11   -0.22    0.00    0.00      -2.83   11.77   -0.50
#  13    6.67   -3.35    2.36   -4.79    0.16    0.00    0.00       1.06  -10.82    0.37
#  14    4.89   -1.10    0.08   -6.57    0.98    0.00    0.00      -1.71  -15.55    2.33
#  15   -0.08   -1.25    0.30    1.41   -0.20    0.00    0.00       0.18    3.11   -0.44
#  16   -0.25   -1.67    0.37   -0.66   -0.16    0.00    0.00      -2.38   -1.52   -0.37
#  17   -0.36   -1.65    0.36   -0.41   -0.22    0.00    0.00      -2.26   -0.84   -0.45
#  18   -0.65   -1.73    0.32   -1.07   -0.28    0.00    0.00      -3.41   -1.80   -0.47
#  19    0.39   -2.41    0.55    0.07   -0.20    0.00    0.00      -1.60    0.12   -0.34
#  20   -1.15   -3.59    4.04   -0.47   -0.32    0.00    0.00      -1.49   -0.72   -0.48
#  21   -0.01   -2.34    0.81   -0.89   -0.24    0.00    0.00      -2.68   -1.75   -0.47
#  22    0.00   -1.80    0.48   -0.39   -0.20    0.00    0.00      -1.92   -0.89   -0.45
#  23   -2.23   -0.48    0.13    1.23   -0.12    0.00    0.00      -1.47    2.85   -0.28
#  24   -3.39   -1.15    1.01    2.56   -0.12    0.00    0.00      -1.09    4.85   -0.22
#  25   -1.77   -0.43    0.17    0.65   -0.10    0.00    0.00      -1.49    1.82   -0.28
#  26   -4.19   -0.45    0.14    3.21   -0.11    0.00    0.00      -1.39    8.43   -0.28
#  27   -1.37   -0.11    0.01    0.24   -0.02    0.00    0.00      -1.26    2.33   -0.22
#  28   -1.33   -0.17    0.01    0.39   -0.04    0.00    0.00      -1.14    2.34   -0.22
#  29   -1.78   -0.15    0.01    0.78   -0.04    0.00    0.00      -1.18    5.33   -0.28
#  30   -4.50   -0.63    0.43    2.55   -0.07    0.00    0.00      -2.22    7.01   -0.20
#  31   -2.35   -0.58    0.73    1.74   -0.07    0.00    0.00      -0.53    6.73   -0.28
#  32   -0.37   -0.08    0.00    0.32   -0.02    0.00    0.00      -0.16    3.92   -0.28
#  33   -0.07   -0.12    0.00    0.19   -0.03    0.00    0.00      -0.03    1.62   -0.28
#  34   -0.79   -0.23    0.03    0.98   -0.08    0.00    0.00      -0.09    3.61   -0.28
#  35   -3.31   -0.02    0.00    2.41    0.12    0.00    0.00      -0.79   10.95    0.56
#  36   -0.16   -0.48    0.10    0.48   -0.11    0.00    0.00      -0.18    1.18   -0.28
#  37    0.29   -0.84    1.17    0.64   -0.12    0.00    0.00       1.15    1.47   -0.28
#  38    1.40   -0.32    0.05    1.08   -0.09    0.00    0.00       2.11    3.18   -0.28
#  39    0.64   -0.34    0.04    0.67   -0.14    0.00    0.00       0.87    1.39   -0.28
#  40   -0.44   -0.63    0.36    0.54   -0.12    0.00    0.00      -0.29    1.25   -0.28
#  41   -0.21   -0.33    0.08    0.80   -0.08    0.00    0.00       0.26    2.83   -0.28
@<TRIPOS>MOLECULE
E17204830
   41    42     0     0     0
SMALL
USER_CHARGES


@<TRIPOS>ATOM
      1 C1         22.3888   18.4681   59.5299 C.3       1            -0.1819
      2 C2         22.5274   19.6741   60.4611 C.3       1             0.0052
      3 N1         23.8061   20.3489   60.2015 N.4       1            -0.3756
      4 H1         23.9816   20.3664   59.2081 H         1             0.4338
      5 C3         24.8893   19.6223   60.8773 C.3       1            -0.0529
      6 C4         23.7463   21.7248   60.7125 C.3       1             0.0863
      7 C5         24.8100   22.5561   60.0429 C.2       1            -0.1122
      8 C6         26.0708   22.7221   60.4816 C.2       1            -0.1341
      9 C7         26.7181   23.5724   59.5558 C.2       1            -0.2190
     10 C8         25.8141   23.8752   58.6068 C.2       1             0.0167
     11 O1         24.6620   23.2522   58.9039 O.3       1            -0.1691
     12 C9         22.4863   19.2097   61.8942 C.2       1             0.5034
     13 O2         22.5807   20.0155   62.7957 O.2       1            -0.5186
     14 N2         22.3446   17.8990   62.1740 N.am      1            -0.6992
     15 C10        22.3048   17.4475   63.5671 C.3       1             0.1623
     16 C11        22.1411   15.9499   63.6054 C.ar      1            -0.1405
     17 C12        20.8756   15.3937   63.6253 C.ar      1            -0.0674
     18 C13        20.7243   14.0205   63.6604 C.ar      1            -0.1549
     19 C14        21.8406   13.2017   63.6752 C.ar      1             0.1212
     20 F1         21.6939   11.8591   63.7091 F         1            -0.1302
     21 C15        23.1076   13.7599   63.6548 C.ar      1            -0.1543
     22 C16        23.2565   15.1332   63.6148 C.ar      1            -0.0666
     23 H2         21.4399   17.9674   59.7227 H         1             0.1135
     24 H3         22.4185   18.8040   58.4934 H         1             0.0991
     25 H4         23.2092   17.7735   59.7105 H         1             0.0929
     26 H5         21.7068   20.3687   60.2805 H         1             0.1594
     27 H6         25.8381   20.1230   60.6847 H         1             0.1269
     28 H7         24.6998   19.6035   61.9506 H         1             0.1279
     29 H8         24.9337   18.6014   60.4982 H         1             0.1248
     30 H9         22.7653   22.1494   60.4990 H         1             0.1602
     31 H10        23.9133   21.7201   61.7896 H         1             0.1471
     32 H11        26.5051   22.2893   61.3707 H         1             0.1620
     33 H12        27.7417   23.9137   59.6021 H         1             0.1644
     34 H13        25.9867   24.5086   57.7493 H         1             0.2193
     35 H14        22.2689   17.2545   61.4530 H         1             0.4115
     36 H15        23.2338   17.7243   64.0655 H         1             0.0909
     37 H16        21.4645   17.9180   64.0777 H         1             0.0901
     38 H17        20.0049   16.0327   63.6137 H         1             0.1354
     39 H18        19.7356   13.5863   63.6766 H         1             0.1426
     40 H19        23.9791   13.1221   63.6666 H         1             0.1430
     41 H20        24.2446   15.5687   63.5948 H         1             0.1364
@<TRIPOS>BOND
     1    1    2 1 
     2    1   23 1 
     3    1   24 1 
     4    1   25 1 
     5    2    3 1 
     6    2   12 1 
     7    2   26 1 
     8    3    4 1 
     9    3    5 1 
    10    3    6 1 
    11    5   27 1 
    12    5   28 1 
    13    5   29 1 
    14    6    7 1 
    15    6   30 1 
    16    6   31 1 
    17    7   11 1 
    18    7    8 2 
    19    8    9 1 
    20    8   32 1 
    21    9   10 2 
    22    9   33 1 
    23   10   11 1 
    24   10   34 1 
    25   12   13 2 
    26   12   14 am
    27   14   15 1 
    28   14   35 1 
    29   15   16 1 
    30   15   36 1 
    31   15   37 1 
    32   16   22 ar
    33   16   17 ar
    34   17   18 ar
    35   17   38 1 
    36   18   19 ar
    37   18   39 1 
    38   19   20 1 
    39   19   21 ar
    40   21   22 ar
    41   21   40 1 
    42   22   41 1 
##########                 Name:            E29696746
##########          Protonation:                  100
##########               SMILES:   C[NH2+]CCCCCc1cc(n(n1)C)c2ccc(cc2)F
##########            Long Name:   5-[5-(4-fluorophenyl)-1-methyl-pyrazol-3-yl]pentyl-methyl-ammonium
##########          FlexRecCode: 1
##########               Number:                  613
##########   Ligand Source File: /raidb/db2/rgc/leads-emolecules-300/leads-lt300-emolecules-1h-0000080.db2.gz
##########           GlobalRank: 3478
##########                 Rank:                    1
##########               Setnum:                  152
##########             Matchnum:                 1830
##########                Cloud:                    1
##########        Electrostatic:           -15.279667
##########        Van der Waals:           -27.042950
##########  Ligand Polar Desolv:             5.874275
########## Ligand Apolar Desolv:            -3.996241
##########      Internal Energy:             0.000000
##########      Receptor Energy: 0.0
########## Receptor Desolvation:             0.000000
########## Receptor Hydrophobic:             0.000000
##########         Total Energy: -40.44
##########        Ligand Charge:             1.000000
##########            Arbitrary:    +999.9990
##########     heavy atom count:   20
##########           pose count:    1
##########        Ligand Energy:             0.000000
# num electro vdwattr vdwrepu polsolv apolsol rdesolv rhydroe totalscore fullpol fullapo
#   1    0.87   -0.72    0.08   -0.43   -0.18    0.00    0.00      -0.39   -1.26   -0.54
#   2    6.35   -0.62    0.04   -4.52    0.25    0.00    0.00       1.50  -16.53    0.90
#   3   -4.23   -0.01    0.00    1.71    0.06    0.00    0.00      -2.47   16.25    0.57
#   4   -4.06   -0.01    0.00    2.53    0.09    0.00    0.00      -1.45   16.36    0.57
#   5    0.17   -0.76    0.12    0.19   -0.13    0.00    0.00      -0.42    0.58   -0.40
#   6    1.09   -0.56    0.04   -1.15   -0.07    0.00    0.00      -0.65   -3.81   -0.24
#   7    0.66   -0.54    0.04   -0.69   -0.06    0.00    0.00      -0.59   -2.39   -0.22
#   8    0.55   -0.77    0.15   -0.55   -0.08    0.00    0.00      -0.70   -1.53   -0.22
#   9    0.05   -1.19    0.33   -0.23   -0.10    0.00    0.00      -1.14   -0.54   -0.24
#  10    0.09   -1.83    0.46    0.22   -0.34    0.00    0.00      -1.40    0.45   -0.71
#  11   -0.54   -2.26    0.51   -0.95    0.68    0.00    0.00      -2.55   -1.70    1.21
#  12   -1.38   -2.02    0.29   -1.32    0.77    0.00    0.00      -3.66   -2.14    1.25
#  13    0.12   -2.62    1.09    0.42   -0.34    0.00    0.00      -1.32    0.63   -0.51
#  14    0.76   -1.73    0.32    0.32   -0.43    0.00    0.00      -0.76    0.54   -0.73
#  15   -1.18   -2.11    0.95   -0.90   -0.22    0.00    0.00      -3.46   -1.91   -0.47
#  16   -0.46   -1.83    0.31   -0.21   -0.23    0.00    0.00      -2.42   -0.37   -0.40
#  17   -1.05   -2.30    0.66   -0.36   -0.23    0.00    0.00      -3.29   -0.63   -0.40
#  18   -2.09   -2.77    1.00   -0.54   -0.28    0.00    0.00      -4.68   -0.92   -0.47
#  19    1.51   -2.44    0.69    0.12   -0.22    0.00    0.00      -0.34    0.18   -0.34
#  20   -1.77   -1.19    0.20   -0.21   -0.30    0.00    0.00      -3.28   -0.34   -0.48
#  21   -1.29   -2.55    0.45   -0.60   -0.30    0.00    0.00      -4.29   -0.93   -0.47
#  22   -0.47   -2.74    1.01   -0.26   -0.28    0.00    0.00      -2.74   -0.43   -0.46
#  23   -2.38   -0.21    0.01    0.94   -0.07    0.00    0.00      -1.69    4.01   -0.28
#  24   -1.90   -0.30    0.09    0.80   -0.06    0.00    0.00      -1.37    3.48   -0.28
#  25   -3.11   -0.38    0.21    0.88   -0.07    0.00    0.00      -2.47    3.56   -0.28
#  26   -1.88   -0.26    0.05    1.14   -0.07    0.00    0.00      -1.03    4.38   -0.28
#  27   -2.85   -0.58    0.42    1.28   -0.09    0.00    0.00      -1.81    4.18   -0.28
#  28   -0.50   -0.32    0.06    0.65   -0.08    0.00    0.00      -0.19    2.17   -0.28
#  29   -0.46   -0.10    0.00    0.26   -0.03    0.00    0.00      -0.33    2.41   -0.28
#  30   -0.29   -0.13    0.00    0.24   -0.04    0.00    0.00      -0.21    1.79   -0.28
#  31   -0.55   -0.30    0.14    0.26   -0.05    0.00    0.00      -0.49    1.46   -0.28
#  32   -0.44   -0.21    0.04    0.07   -0.06    0.00    0.00      -0.59    0.36   -0.28
#  33   -0.34   -0.43    0.33    0.20   -0.09    0.00    0.00      -0.34    0.62   -0.28
#  34   -0.13   -0.38    0.10    0.51   -0.09    0.00    0.00       0.01    1.59   -0.28
#  35    0.00   -0.72    0.77    0.34   -0.10    0.00    0.00       0.28    0.95   -0.28
#  36    0.02   -0.89    0.74    0.68   -0.16    0.00    0.00       0.38    1.13   -0.27
#  37    0.19   -1.03    0.86    0.69   -0.15    0.00    0.00       0.56    1.03   -0.22
#  38    0.05   -1.66    2.27    0.57   -0.18    0.00    0.00       1.05    0.87   -0.28
#  39    0.90   -0.65    0.56    0.64   -0.10    0.00    0.00       1.36    1.75   -0.26
#  40    1.28   -0.61    0.31    0.75   -0.08    0.00    0.00       1.65    1.62   -0.18
#  41    1.70   -0.71    0.24    0.68   -0.16    0.00    0.00       1.76    1.21   -0.28
#  42    0.76   -0.67    0.16    0.76   -0.17    0.00    0.00       0.84    1.25   -0.28
#  43    0.92   -1.14    2.07    0.97   -0.14    0.00    0.00       2.67    1.75   -0.26
@<TRIPOS>MOLECULE
E29696746
   43    44     0     0     0
SMALL
USER_CHARGES


@<TRIPOS>ATOM
      1 C1         23.8538   20.1432   60.9178 C.3       1            -0.0475
      2 N1         24.8547   19.1025   61.1883 N.4       1            -0.5106
      3 H1         25.7801   19.4905   61.0826 H         1             0.4303
      4 H2         24.7387   18.7613   62.1306 H         1             0.4302
      5 C2         24.6772   17.9943   60.2407 C.3       1            -0.0119
      6 C3         25.7197   16.9105   60.5225 C.3       1            -0.1509
      7 C4         25.5439   16.3926   61.9514 C.3       1            -0.1182
      8 C5         24.1406   15.8044   62.1117 C.3       1            -0.1145
      9 C6         23.9648   15.2867   63.5406 C.3       1            -0.0370
     10 C7         22.5826   14.7073   63.6985 C.2       1             0.0699
     11 N2         22.2469   13.4615   63.4784 N.2       1            -0.2853
     12 N3         20.8776   13.3178   63.7360 N.pl3     1            -0.3664
     13 C8         20.1003   12.0822   63.6127 C.3       1             0.0905
     14 C9         20.3982   14.5336   64.1224 C.2       1             0.1305
     15 C10        21.4483   15.4077   64.1095 C.2       1            -0.2515
     16 C11        19.0006   14.8477   64.4931 C.ar      1            -0.0503
     17 C12        18.0932   15.2599   63.5168 C.ar      1            -0.0888
     18 C13        16.7913   15.5510   63.8675 C.ar      1            -0.1484
     19 C14        16.3842   15.4351   65.1869 C.ar      1             0.1136
     20 F1         15.1079   15.7214   65.5253 F         1            -0.1319
     21 C15        17.2815   15.0261   66.1604 C.ar      1            -0.1483
     22 C16        18.5841   14.7271   65.8192 C.ar      1            -0.0596
     23 H3         22.8540   19.7243   61.0320 H         1             0.1260
     24 H4         23.9856   20.9656   61.6209 H         1             0.1233
     25 H5         23.9791   20.5120   59.8998 H         1             0.1233
     26 H6         23.6774   17.5752   60.3549 H         1             0.1317
     27 H7         24.8025   18.3630   59.2227 H         1             0.1317
     28 H8         25.5880   16.0881   59.8192 H         1             0.0875
     29 H9         26.7194   17.3295   60.4083 H         1             0.0871
     30 H10        26.2865   15.6205   62.1520 H         1             0.0759
     31 H11        25.6756   17.2151   62.6546 H         1             0.0759
     32 H12        23.3979   16.5767   61.9111 H         1             0.0730
     33 H13        24.0088   14.9822   61.4084 H         1             0.0672
     34 H14        24.7075   14.5145   63.7411 H         1             0.0851
     35 H15        24.0967   16.1089   64.2438 H         1             0.0825
     36 H16        19.0617   12.2781   63.8792 H         1             0.0798
     37 H17        20.1499   11.7227   62.5848 H         1             0.0924
     38 H18        20.5108   11.3262   64.2821 H         1             0.0957
     39 H19        21.4070   16.4554   64.3687 H         1             0.1508
     40 H20        18.4097   15.3513   62.4884 H         1             0.1374
     41 H21        16.0882   15.8702   63.1124 H         1             0.1434
     42 H22        16.9593   14.9373   67.1874 H         1             0.1451
     43 H23        19.2816   14.4044   66.5780 H         1             0.1411
@<TRIPOS>BOND
     1    1    2 1 
     2    1   23 1 
     3    1   24 1 
     4    1   25 1 
     5    2    3 1 
     6    2    4 1 
     7    2    5 1 
     8    5    6 1 
     9    5   26 1 
    10    5   27 1 
    11    6    7 1 
    12    6   28 1 
    13    6   29 1 
    14    7    8 1 
    15    7   30 1 
    16    7   31 1 
    17    8    9 1 
    18    8   32 1 
    19    8   33 1 
    20    9   10 1 
    21    9   34 1 
    22    9   35 1 
    23   10   15 1 
    24   10   11 2 
    25   11   12 1 
    26   12   13 1 
    27   12   14 1 
    28   13   36 1 
    29   13   37 1 
    30   13   38 1 
    31   14   15 2 
    32   14   16 1 
    33   15   39 1 
    34   16   22 ar
    35   16   17 ar
    36   17   18 ar
    37   17   40 1 
    38   18   19 ar
    39   18   41 1 
    40   19   20 1 
    41   19   21 ar
    42   21   22 ar
    43   21   42 1 
    44   22   43 1 
##########                 Name:            E42876905
##########          Protonation:                   98
##########               SMILES:   c1cc2c(ncnc2cc1)NC[C@H]3CC[NH+](CC3)CCO
##########            Long Name:   2-[4-[(quinazolin-4-ylamino)methyl]piperidin-1-ium-1-yl]ethanol
##########          FlexRecCode: 1
##########               Number:                  507
##########   Ligand Source File: /raidb/db2/rgc/leads-emolecules-300/leads-emolecules-2b-0000175.db2.gz
##########           GlobalRank: 3512
##########                 Rank:                    1
##########               Setnum:                  257
##########             Matchnum:                 6114
##########                Cloud:                    1
##########        Electrostatic:           -28.645784
##########        Van der Waals:           -18.382504
##########  Ligand Polar Desolv:             9.259791
########## Ligand Apolar Desolv:            -2.640371
##########      Internal Energy:             0.000000
##########      Receptor Energy: 0.0
########## Receptor Desolvation:             0.000000
########## Receptor Hydrophobic:             0.000000
##########         Total Energy: -40.41
##########        Ligand Charge:             1.000000
##########            Arbitrary:    +999.9990
##########     heavy atom count:   21
##########           pose count:    1
##########        Ligand Energy:             0.000000
# num electro vdwattr vdwrepu polsolv apolsol rdesolv rhydroe totalscore fullpol fullapo
#   1    5.30   -0.87    0.15   -3.97    0.47    0.00    0.00       1.08  -14.24    1.69
#   2   -0.47   -0.50    0.04    0.24   -0.04    0.00    0.00      -0.73    0.93   -0.14
#   3    0.30   -0.83    0.13   -0.06   -0.11    0.00    0.00      -0.56   -0.18   -0.32
#   4    9.92   -2.34    3.86   -3.78    0.15    0.00    0.00       7.81  -11.15    0.43
#   5  -19.44   -0.36    0.50    4.98    0.18    0.00    0.00     -14.14   14.70    0.52
#   6    0.14   -1.41    0.50    0.17   -0.18    0.00    0.00      -0.77    0.41   -0.42
#   7    1.94   -0.67    0.04   -1.56   -0.08    0.00    0.00      -0.33   -3.87   -0.21
#   8    1.08   -0.56    0.04   -0.71   -0.05    0.00    0.00      -0.20   -2.25   -0.16
#   9   -0.62   -0.90    0.13    0.83   -0.14    0.00    0.00      -0.70    2.21   -0.38
#  10    0.58   -1.36    0.16   -4.49    0.68    0.00    0.00      -4.43  -10.64    1.61
#  11    0.77   -1.64    0.36    1.94   -0.94    0.00    0.00       0.50    4.28   -2.07
#  12    0.31   -1.79    0.38   -1.77    0.90    0.00    0.00      -1.97   -3.76    1.92
#  13    0.32   -3.08    1.35    0.55   -1.74    0.00    0.00      -2.59    1.01   -3.16
#  14   -2.60   -3.34    1.20   -0.28    1.29    0.00    0.00      -3.73   -0.45    2.06
#  15    0.85   -2.37    0.94    0.07   -0.44    0.00    0.00      -0.95    0.11   -0.73
#  16   -0.36   -3.84    5.51   -0.43   -0.29    0.00    0.00       0.60   -0.70   -0.47
#  17   -0.46   -2.65    1.01   -0.30   -0.28    0.00    0.00      -2.67   -0.50   -0.47
#  18   -1.51   -2.15    0.57   -0.93   -0.27    0.00    0.00      -4.29   -1.60   -0.47
#  19   -0.86   -2.55    1.55   -0.29   -0.23    0.00    0.00      -2.38   -0.58   -0.45
#  20   -1.05   -1.88    0.58   -0.88   -0.21    0.00    0.00      -3.44   -1.68   -0.40
#  21    1.43   -0.48    0.04   -1.08   -0.05    0.00    0.00      -0.16   -4.22   -0.21
#  22    0.17   -0.74    0.20    0.02   -0.11    0.00    0.00      -0.45    0.08   -0.40
#  23   -4.97   -0.04    0.00    2.50    0.32    0.00    0.00      -2.19    9.76    1.24
#  24   -0.48   -0.09    0.00    0.24   -0.02    0.00    0.00      -0.34    2.71   -0.22
#  25   -0.58   -0.17    0.02    0.20   -0.04    0.00    0.00      -0.57    1.32   -0.28
#  26   -2.18   -0.25    0.05    0.97   -0.03    0.00    0.00      -1.45    4.54   -0.15
#  27   -3.47   -0.39    0.10    1.29   -0.09    0.00    0.00      -2.56    3.96   -0.28
#  28   -3.91   -0.57    0.27    1.89   -0.11    0.00    0.00      -2.43    4.69   -0.28
#  29   -3.41   -0.72    0.48    2.28   -0.12    0.00    0.00      -1.50    5.17   -0.28
#  30   -1.24   -0.21    0.01    0.58   -0.05    0.00    0.00      -0.91    2.58   -0.21
#  31   -1.27   -0.24    0.03    0.57   -0.07    0.00    0.00      -0.98    2.14   -0.28
#  32   -0.88   -0.22    0.04    0.66   -0.06    0.00    0.00      -0.47    3.10   -0.28
#  33   -0.28   -0.28    0.05    0.25   -0.07    0.00    0.00      -0.33    1.07   -0.28
#  34   -0.40   -0.52    0.20    0.19   -0.10    0.00    0.00      -0.63    0.55   -0.28
#  35    0.00   -0.02    0.00    2.58    0.12    0.00    0.00       2.68    8.93    0.40
#  36   -0.73   -1.36    2.91    0.62   -0.14    0.00    0.00       1.29    1.24   -0.28
#  37   -0.25   -1.30    2.18    0.07   -0.17    0.00    0.00       0.53    0.11   -0.28
#  38    0.50   -0.73    0.44    0.75   -0.14    0.00    0.00       0.83    1.52   -0.28
#  39    2.36   -0.46    0.10    1.18   -0.12    0.00    0.00       3.06    2.68   -0.28
#  40    1.79   -0.76    0.76    1.46   -0.09    0.00    0.00       3.16    3.81   -0.23
#  41   -0.81   -0.20    0.03    0.44   -0.04    0.00    0.00      -0.58    2.55   -0.22
#  42   -0.78   -0.14    0.02    0.32   -0.03    0.00    0.00      -0.60    2.63   -0.25
#  43   -2.00   -0.32    0.09    1.37   -0.07    0.00    0.00      -0.93    5.43   -0.28
#  44   -1.42   -0.14    0.02    0.58   -0.03    0.00    0.00      -0.98    4.58   -0.21
@<TRIPOS>MOLECULE
E42876905
   44    46     0     0     0
SMALL
USER_CHARGES


@<TRIPOS>ATOM
      1 O1         25.3853   22.4018   59.4475 O.3       1            -0.5806
      2 C1         25.2103   21.8265   60.7438 C.3       1             0.0460
      3 C2         23.9990   20.8921   60.7278 C.3       1            -0.0156
      4 N1         24.2176   19.8238   59.7434 N.4       1            -0.3786
      5 H1         24.3410   20.2311   58.8284 H         1             0.4346
      6 C3         23.0532   18.9303   59.7265 C.3       1            -0.0058
      7 C4         22.8141   18.3714   61.1308 C.3       1            -0.1411
      8 C5         24.0521   17.5907   61.5813 C.3       1            -0.1151
      9 C6         23.8515   17.0962   63.0151 C.3       1             0.1340
     10 N2         22.4699   16.6393   63.1853 N.pl3     1            -0.7068
     11 C7         22.2154   15.3331   63.5448 C.ar      1             0.4689
     12 N3         23.1290   14.3876   63.3696 N.ar      1            -0.5940
     13 C8         22.8969   13.1302   63.7105 C.ar      1             0.3460
     14 N4         21.7640   12.7311   64.2383 N.ar      1            -0.5425
     15 C9         20.7713   13.6054   64.4591 C.ar      1             0.1853
     16 C10        19.5486   13.2143   65.0216 C.ar      1            -0.1039
     17 C11        18.5731   14.1445   65.2248 C.ar      1            -0.0736
     18 C12        18.7716   15.4792   64.8822 C.ar      1            -0.1249
     19 C13        19.9492   15.8936   64.3331 C.ar      1            -0.0794
     20 C14        20.9733   14.9648   64.1168 C.ar      1            -0.1953
     21 C15        25.2737   18.5126   61.5238 C.3       1            -0.1480
     22 C16        25.4207   19.0651   60.1060 C.3       1            -0.0114
     23 H2         25.5348   21.7530   58.7462 H         1             0.4096
     24 H3         26.1021   21.2609   61.0137 H         1             0.0706
     25 H4         25.0481   22.6191   61.4743 H         1             0.0943
     26 H5         23.8656   20.4531   61.7166 H         1             0.1454
     27 H6         23.1072   21.4579   60.4579 H         1             0.1388
     28 H7         22.1737   19.4865   59.4026 H         1             0.1345
     29 H8         23.2369   18.1078   59.0351 H         1             0.1321
     30 H9         22.6300   19.1930   61.8231 H         1             0.0935
     31 H10        21.9503   17.7068   61.1158 H         1             0.1183
     32 H11        24.2061   16.7381   60.9199 H         1             0.0990
     33 H12        24.5344   16.2702   63.2137 H         1             0.0764
     34 H13        24.0533   17.9099   63.7118 H         1             0.0821
     35 H14        21.7345   17.2558   63.0448 H         1             0.4093
     36 H15        23.6749   12.3995   63.5465 H         1             0.1972
     37 H16        19.3803   12.1823   65.2920 H         1             0.1437
     38 H17        17.6315   13.8412   65.6580 H         1             0.1373
     39 H18        17.9822   16.1960   65.0533 H         1             0.1322
     40 H19        20.0919   16.9315   64.0713 H         1             0.1211
     41 H20        25.1406   19.3372   62.2242 H         1             0.0931
     42 H21        26.1679   17.9490   61.7898 H         1             0.1101
     43 H22        25.5539   18.2399   59.4064 H         1             0.1326
     44 H23        26.2901   19.7210   60.0625 H         1             0.1307
@<TRIPOS>BOND
     1    1    2 1 
     2    1   23 1 
     3    2    3 1 
     4    2   24 1 
     5    2   25 1 
     6    3    4 1 
     7    3   26 1 
     8    3   27 1 
     9    4    5 1 
    10    4   22 1 
    11    4    6 1 
    12    6    7 1 
    13    6   28 1 
    14    6   29 1 
    15    7    8 1 
    16    7   30 1 
    17    7   31 1 
    18    8    9 1 
    19    8   21 1 
    20    8   32 1 
    21    9   10 1 
    22    9   33 1 
    23    9   34 1 
    24   10   11 1 
    25   10   35 1 
    26   11   20 ar
    27   11   12 ar
    28   12   13 ar
    29   13   14 ar
    30   13   36 1 
    31   14   15 ar
    32   15   20 ar
    33   15   16 ar
    34   16   17 ar
    35   16   37 1 
    36   17   18 ar
    37   17   38 1 
    38   18   19 ar
    39   18   39 1 
    40   19   20 ar
    41   19   40 1 
    42   21   22 1 
    43   21   41 1 
    44   21   42 1 
    45   22   43 1 
    46   22   44 1 
##########                 Name:            E27392993
##########          Protonation:                   74
##########               SMILES:   CCc1cc2c(ncnc2s1)Nc3ccc4c(c3)c[nH]n4
##########            Long Name:   6-ethyl-N-(2H-indazol-5-yl)thieno[2,3-d]pyrimidin-4-amine
##########          FlexRecCode: 1
##########               Number:                    8
##########   Ligand Source File: /raidb/db2/rgc/leads-emolecules-300/leads-emolecules-2g-0000357.db2.gz
##########           GlobalRank: 3512
##########                 Rank:                    1
##########               Setnum:                   19
##########             Matchnum:                 6223
##########                Cloud:                    1
##########        Electrostatic:            -6.311833
##########        Van der Waals:           -36.879768
##########  Ligand Polar Desolv:             6.939089
########## Ligand Apolar Desolv:            -4.153499
##########      Internal Energy:             0.000000
##########      Receptor Energy: 0.0
########## Receptor Desolvation:             0.000000
########## Receptor Hydrophobic:             0.000000
##########         Total Energy: -40.41
##########        Ligand Charge:             0.000000
##########            Arbitrary:    +999.9990
##########     heavy atom count:   21
##########           pose count:    1
##########        Ligand Energy:             0.000000
# num electro vdwattr vdwrepu polsolv apolsol rdesolv rhydroe totalscore fullpol fullapo
#   1    1.20   -1.28    0.24   -0.20   -0.08    0.00    0.00      -0.12   -0.50   -0.19
#   2    0.34   -0.66    0.05   -0.05   -0.09    0.00    0.00      -0.41   -0.15   -0.27
#   3    0.47   -1.18    0.13   -0.02   -0.11    0.00    0.00      -0.71   -0.06   -0.28
#   4   -0.01   -1.42    0.30   -0.03   -0.19    0.00    0.00      -1.35   -0.06   -0.45
#   5   -0.74   -1.66    0.50    0.31   -0.21    0.00    0.00      -1.78    0.65   -0.43
#   6    2.91   -1.58    0.24   -0.64   -1.14    0.00    0.00      -0.21   -1.12   -1.98
#   7   -7.20   -1.80    0.27   -0.03    0.55    0.00    0.00      -8.21   -0.05    1.03
#   8    1.36   -2.05    0.40   -0.06   -0.41    0.00    0.00      -0.75   -0.10   -0.68
#   9   -0.34   -2.19    0.39    0.05   -0.25    0.00    0.00      -2.34    0.08   -0.40
#  10   -1.42   -2.75    0.66    0.37   -0.29    0.00    0.00      -3.43    0.57   -0.45
#  11    0.04   -4.67    1.95    0.12   -0.71    0.00    0.00      -3.27    0.18   -1.04
#  12   -0.66   -5.20    3.26   -0.08    0.48    0.00    0.00      -2.20   -0.12    0.73
#  13   -2.50   -2.81    0.76    1.13    0.79    0.00    0.00      -2.63    1.77    1.23
#  14    1.05   -2.80    1.49   -0.16   -0.53    0.00    0.00      -0.95   -0.25   -0.83
#  15   -1.10   -3.06    1.60    0.17   -0.28    0.00    0.00      -2.68    0.29   -0.48
#  16   -1.24   -3.04    1.04    0.01   -0.27    0.00    0.00      -3.50    0.02   -0.46
#  17   -2.45   -2.04    0.35    1.10    0.87    0.00    0.00      -2.17    1.80    1.41
#  18    1.47   -3.25    1.41   -0.60   -2.06    0.00    0.00      -3.03   -0.93   -3.18
#  19   -1.99   -3.00    1.02    1.75    1.23    0.00    0.00      -1.00    2.93    2.06
#  20    0.23   -1.94    0.50   -0.24   -0.35    0.00    0.00      -1.80   -0.48   -0.69
#  21   -0.20   -2.58    0.66   -0.08   -0.35    0.00    0.00      -2.54   -0.18   -0.83
#  22   -0.61   -0.38    0.08    0.02   -0.08    0.00    0.00      -0.97    0.07   -0.28
#  23   -0.61   -0.35    0.05    0.13   -0.10    0.00    0.00      -0.87    0.39   -0.28
#  24   -0.23   -0.79    0.35    0.09   -0.13    0.00    0.00      -0.71    0.19   -0.28
#  25   -1.05   -0.15    0.01    0.11   -0.04    0.00    0.00      -1.12    0.74   -0.28
#  26   -0.67   -0.26    0.08    0.07   -0.05    0.00    0.00      -0.83    0.37   -0.28
#  27    0.09   -0.28    0.04    0.22   -0.08    0.00    0.00       0.00    0.75   -0.26
#  28    5.10   -0.03    0.00    0.60    0.22    0.00    0.00       5.89    1.42    0.53
#  29    1.07   -0.53    0.20   -0.15   -0.11    0.00    0.00       0.49   -0.30   -0.22
#  30   -0.61   -1.57    1.20    1.22   -0.19    0.00    0.00       0.05    1.79   -0.28
#  31   -1.38   -0.22    0.07    1.32    0.27    0.00    0.00       0.06    1.93    0.40
#  32    1.34   -0.65    0.26   -0.08   -0.15    0.00    0.00       0.71   -0.16   -0.28
#  33    1.43   -1.02    0.92    0.32   -0.16    0.00    0.00       1.49    0.55   -0.28
#  34    0.59   -1.28    1.12    0.25   -0.18    0.00    0.00       0.49    0.39   -0.28
@<TRIPOS>MOLECULE
E27392993
   34    37     0     0     0
SMALL
USER_CHARGES


@<TRIPOS>ATOM
      1 C1         23.3797   19.1204   63.0058 C.3       1            -0.1508
      2 C2         23.9821   17.8925   62.3200 C.3       1            -0.0421
      3 C3         23.2698   16.6521   62.7945 C.2       1            -0.1301
      4 C4         21.9504   16.4533   62.9317 C.2       1            -0.1216
      5 C5         21.4730   15.1681   63.4103 C.ar      1            -0.2421
      6 C6         20.1424   14.7185   63.6361 C.ar      1             0.4812
      7 N1         19.0689   15.5573   63.3936 N.pl3     1            -0.6378
      8 C7         17.8942   15.4251   64.1431 C.ar      1             0.1017
      9 C8         17.9716   14.9769   65.4273 C.ar      1            -0.0346
     10 C9         16.7905   14.8420   66.1884 C.ar      1            -0.1907
     11 C10        16.5050   14.4310   67.4770 C.2       1             0.0852
     12 N2         15.1776   14.5127   67.6511 N.pl3     1            -0.4244
     13 N3         14.5706   14.9786   66.4794 N.2       1            -0.3010
     14 C11        15.5033   15.1915   65.5681 C.ar      1             0.0950
     15 C12        15.4971   15.6490   64.2323 C.ar      1            -0.0833
     16 C13        16.6660   15.7627   63.5561 C.ar      1            -0.0867
     17 N4         19.9441   13.4880   64.0807 N.ar      1            -0.5761
     18 C14        20.9428   12.6581   64.3234 C.ar      1             0.3607
     19 N5         22.1975   13.0173   64.1336 N.ar      1            -0.5196
     20 C15        22.4862   14.2256   63.6918 C.ar      1             0.1479
     21 S1         23.9801   15.0966   63.2997 S.3       1             0.1077
     22 H1         23.8949   20.0175   62.6626 H         1             0.0600
     23 H2         22.3207   19.1921   62.7579 H         1             0.0668
     24 H3         23.4945   19.0262   64.0857 H         1             0.0590
     25 H4         23.8674   17.9866   61.2401 H         1             0.0899
     26 H5         25.0411   17.8208   62.5679 H         1             0.0841
     27 H6         21.2514   17.2402   62.6895 H         1             0.1358
     28 H7         19.1305   16.2369   62.7042 H         1             0.4201
     29 H8         18.9291   14.7266   65.8596 H         1             0.1377
     30 H9         17.2236   14.1020   68.2131 H         1             0.1895
     31 H10        14.7080   14.2826   68.4680 H         1             0.4453
     32 H11        14.5656   15.9123   63.7534 H         1             0.1349
     33 H12        16.6509   16.1182   62.5365 H         1             0.1300
     34 H13        20.7271   11.6638   64.6854 H         1             0.2088
@<TRIPOS>BOND
     1    1    2 1 
     2    1   22 1 
     3    1   23 1 
     4    1   24 1 
     5    2    3 1 
     6    2   25 1 
     7    2   26 1 
     8    3   21 1 
     9    3    4 2 
    10    4    5 1 
    11    4   27 1 
    12    5   20 ar
    13    5    6 ar
    14    6    7 1 
    15    6   17 ar
    16    7    8 1 
    17    7   28 1 
    18    8   16 ar
    19    8    9 ar
    20    9   10 ar
    21    9   29 1 
    22   10   14 ar
    23   10   11 2 
    24   11   12 1 
    25   11   30 1 
    26   12   13 1 
    27   12   31 1 
    28   13   14 2 
    29   14   15 ar
    30   15   16 ar
    31   15   32 1 
    32   16   33 1 
    33   17   18 ar
    34   18   19 ar
    35   18   34 1 
    36   19   20 ar
    37   20   21 1 
##########                 Name:             E2465215
##########          Protonation:                  100
##########               SMILES:   Cc1cc(ccc1[N+](=O)[O-])OCCCC[NH2+]C2CCCC2
##########            Long Name:   cyclopentyl-[4-(3-methyl-4-nitro-phenoxy)butyl]ammonium
##########          FlexRecCode: 1
##########               Number:                  178
##########   Ligand Source File: /raidb/db2/rgc/leads-emolecules-300/leads-emolecules-2f-0000014.db2.gz
##########           GlobalRank: 3532
##########                 Rank:                    1
##########               Setnum:                  157
##########             Matchnum:                 6775
##########                Cloud:                    1
##########        Electrostatic:           -24.516562
##########        Van der Waals:           -21.678059
##########  Ligand Polar Desolv:             9.276420
########## Ligand Apolar Desolv:            -3.485547
##########      Internal Energy:             0.000000
##########      Receptor Energy: 0.0
########## Receptor Desolvation:             0.000000
########## Receptor Hydrophobic:             0.000000
##########         Total Energy: -40.4
##########        Ligand Charge:             1.000000
##########            Arbitrary:    +999.9990
##########     heavy atom count:   21
##########           pose count:    1
##########        Ligand Energy:             0.000000
# num electro vdwattr vdwrepu polsolv apolsol rdesolv rhydroe totalscore fullpol fullapo
#   1   -0.94   -1.06    0.13   -0.44   -0.10    0.00    0.00      -2.40   -0.76   -0.18
#   2    0.10   -1.66    0.37   -0.02   -0.20    0.00    0.00      -1.41   -0.04   -0.40
#   3   -0.57   -1.95    0.66   -0.74   -0.21    0.00    0.00      -2.81   -1.65   -0.46
#   4   -0.22   -1.55    0.24    1.12   -0.13    0.00    0.00      -0.55    2.63   -0.31
#   5    1.39   -1.48    0.17   -2.13    0.39    0.00    0.00      -1.67   -4.91    0.89
#   6   -0.41   -1.52    0.39    0.11   -0.04    0.00    0.00      -1.47    0.24   -0.09
#   7    1.46   -0.87    0.10   -1.39   -0.11    0.00    0.00      -0.82   -2.99   -0.24
#   8    2.70   -0.77    0.07   -1.74   -0.10    0.00    0.00       0.16   -4.29   -0.24
#   9    0.21   -0.90    0.14    0.12   -0.14    0.00    0.00      -0.57    0.32   -0.39
#  10   12.16   -2.23    3.98   -5.36    0.18    0.00    0.00       8.73  -17.25    0.58
#  11   -7.25   -0.02    0.00    2.82    0.09    0.00    0.00      -4.35   18.08    0.56
#  12  -19.60   -0.40    0.61    5.95    0.19    0.00    0.00     -13.24   17.21    0.55
#  13   -0.27   -0.84    0.33    0.65   -0.08    0.00    0.00      -0.22    2.33   -0.29
#  14    0.98   -1.26    0.84   -1.07   -0.06    0.00    0.00      -0.57   -3.63   -0.22
#  15    0.33   -0.48    0.04   -0.80   -0.08    0.00    0.00      -0.99   -3.06   -0.29
#  16    0.20   -0.32    0.01   -0.62   -0.06    0.00    0.00      -0.79   -3.06   -0.29
#  17    0.80   -0.36    0.01   -0.77   -0.06    0.00    0.00      -0.38   -3.66   -0.27
#  18    0.48   -1.47    0.27   -0.97   -0.16    0.00    0.00      -1.86   -2.49   -0.42
#  19    0.02   -1.72    0.38   -0.11   -0.20    0.00    0.00      -1.63   -0.25   -0.44
#  20   -0.14   -1.87    0.51   -0.36   -0.34    0.00    0.00      -2.20   -0.70   -0.66
#  21    0.12   -3.08    0.91    0.01    0.24    0.00    0.00      -1.80    0.01    0.39
#  22   -0.61   -4.73    3.00    0.18   -0.38    0.00    0.00      -2.54    0.28   -0.58
#  23   -1.01   -4.92    4.37    0.19   -0.42    0.00    0.00      -1.79    0.29   -0.65
#  24    1.23   -0.31    0.03    0.18   -0.10    0.00    0.00       1.04    0.51   -0.28
#  25    0.47   -0.36    0.06    0.48   -0.12    0.00    0.00       0.53    1.13   -0.28
#  26    0.48   -0.40    0.11    0.00   -0.10    0.00    0.00       0.08   -0.01   -0.24
#  27    1.40   -0.62    0.47    0.81   -0.10    0.00    0.00       1.95    2.23   -0.28
#  28   -0.22   -0.87    0.73    1.00   -0.12    0.00    0.00       0.53    2.17   -0.26
#  29   -0.92   -0.89    0.88    0.85   -0.10    0.00    0.00      -0.18    2.13   -0.26
#  30   -0.67   -0.25    0.03    0.51   -0.08    0.00    0.00      -0.46    1.76   -0.28
#  31   -1.42   -0.33    0.06    0.62   -0.10    0.00    0.00      -1.16    1.82   -0.28
#  32   -1.26   -0.16    0.01    0.67   -0.05    0.00    0.00      -0.78    3.84   -0.28
#  33   -2.24   -0.40    0.08    1.39   -0.11    0.00    0.00      -1.28    3.67   -0.28
#  34   -3.64   -0.43    0.13    1.61   -0.09    0.00    0.00      -2.42    4.56   -0.25
#  35   -2.15   -0.27    0.06    1.14   -0.06    0.00    0.00      -1.28    5.15   -0.28
#  36   -2.10   -0.26    0.04    1.34   -0.07    0.00    0.00      -1.04    5.46   -0.28
#  37   -0.53   -0.34    0.14    0.79   -0.06    0.00    0.00       0.00    3.46   -0.27
#  38   -0.54   -0.89    1.40    0.89   -0.10    0.00    0.00       0.76    2.50   -0.28
#  39   -0.02   -0.15    0.01    0.06   -0.04    0.00    0.00      -0.13    0.45   -0.28
#  40   -0.26   -0.15    0.01    0.11   -0.05    0.00    0.00      -0.34    0.66   -0.28
#  41    0.05   -0.10    0.00    0.16   -0.03    0.00    0.00       0.09    1.55   -0.28
#  42   -0.04   -0.11    0.01    0.01   -0.03    0.00    0.00      -0.17    0.12   -0.28
#  43   -0.44   -0.18    0.02    0.30   -0.05    0.00    0.00      -0.34    1.85   -0.28
#  44   -0.38   -0.08    0.00    0.30   -0.02    0.00    0.00      -0.18    3.91   -0.27
#  45   -0.63   -0.25    0.04    0.89   -0.05    0.00    0.00       0.00    4.19   -0.22
#  46   -0.62   -0.38    0.10    0.53   -0.10    0.00    0.00      -0.47    1.52   -0.28
@<TRIPOS>MOLECULE
E2465215
   46    47     0     0     0
SMALL
USER_CHARGES


@<TRIPOS>ATOM
      1 C1         19.7778   14.7062   63.9447 C.3       1            -0.1320
      2 C2         21.1991   15.1408   63.6955 C.ar      1             0.0228
      3 C3         21.5130   16.4858   63.6571 C.ar      1            -0.1501
      4 C4         22.8214   16.8851   63.4277 C.ar      1             0.1780
      5 O1         23.1327   18.2075   63.3898 O.3       1            -0.3026
      6 C5         22.1134   19.1013   62.9381 C.3       1             0.0525
      7 C6         21.7088   18.7332   61.5092 C.3       1            -0.1184
      8 C7         22.9270   18.8424   60.5900 C.3       1            -0.1472
      9 C8         23.4584   20.2769   60.6159 C.3       1            -0.0096
     10 N1         24.6281   20.3821   59.7336 N.4       1            -0.5064
     11 H1         25.3479   19.7510   60.0525 H         1             0.4282
     12 H2         24.3614   20.1392   58.7913 H         1             0.4264
     13 C9         25.1383   21.7594   59.7585 C.3       1             0.0199
     14 C10        26.1703   21.9877   58.6361 C.3       1            -0.1432
     15 C11        26.9251   23.2305   59.1070 C.3       1            -0.1258
     16 C12        26.8438   23.2294   60.6283 C.3       1            -0.1314
     17 C13        26.0004   22.0089   61.0159 C.3       1            -0.1448
     18 C14        23.8118   15.9323   63.2372 C.ar      1            -0.2137
     19 C15        23.4929   14.5889   63.2766 C.ar      1            -0.0119
     20 C16        22.1887   14.1933   63.5111 C.ar      1            -0.0811
     21 N2         21.8509   12.7531   63.5593 N.pl3     1             0.0312
     22 O2         21.5292   12.1736   62.5482 O.2       1            -0.1430
     23 O3         21.8965   12.1563   64.6096 O.3       1            -0.1547
     24 H3         19.1448   15.5854   64.0649 H         1             0.1021
     25 H4         19.4243   14.1172   63.0984 H         1             0.0844
     26 H5         19.7362   14.1019   64.8507 H         1             0.0798
     27 H6         20.7402   17.2256   63.8051 H         1             0.1562
     28 H7         21.2454   19.0235   63.5929 H         1             0.0721
     29 H8         22.4919   20.1233   62.9566 H         1             0.0723
     30 H9         21.3302   17.7113   61.4907 H         1             0.0892
     31 H10        20.9314   19.4150   61.1646 H         1             0.0893
     32 H11        23.7046   18.1607   60.9345 H         1             0.0923
     33 H12        22.6389   18.5804   59.5721 H         1             0.0920
     34 H13        22.6810   20.9588   60.2715 H         1             0.1343
     35 H14        23.7467   20.5393   61.6341 H         1             0.1348
     36 H15        24.3215   22.4784   59.6952 H         1             0.1433
     37 H16        26.8446   21.1354   58.5532 H         1             0.0871
     38 H17        25.6707   22.1771   57.6859 H         1             0.0980
     39 H18        27.9659   23.1806   58.7870 H         1             0.0890
     40 H19        26.4549   24.1288   58.7069 H         1             0.0841
     41 H20        27.8427   23.1457   61.0566 H         1             0.0780
     42 H21        26.3634   24.1431   60.9783 H         1             0.0882
     43 H22        25.3700   22.2345   61.8760 H         1             0.1038
     44 H23        26.6389   21.1497   61.2212 H         1             0.0855
     45 H24        24.8313   16.2407   63.0582 H         1             0.1476
     46 H25        24.2635   13.8469   63.1281 H         1             0.1531
@<TRIPOS>BOND
     1    1    2 1 
     2    1   24 1 
     3    1   25 1 
     4    1   26 1 
     5    2   20 ar
     6    2    3 ar
     7    3    4 ar
     8    3   27 1 
     9    4    5 1 
    10    4   18 ar
    11    5    6 1 
    12    6    7 1 
    13    6   28 1 
    14    6   29 1 
    15    7    8 1 
    16    7   30 1 
    17    7   31 1 
    18    8    9 1 
    19    8   32 1 
    20    8   33 1 
    21    9   10 1 
    22    9   34 1 
    23    9   35 1 
    24   10   11 1 
    25   10   12 1 
    26   10   13 1 
    27   13   17 1 
    28   13   14 1 
    29   13   36 1 
    30   14   15 1 
    31   14   37 1 
    32   14   38 1 
    33   15   16 1 
    34   15   39 1 
    35   15   40 1 
    36   16   17 1 
    37   16   41 1 
    38   16   42 1 
    39   17   43 1 
    40   17   44 1 
    41   18   19 ar
    42   18   45 1 
    43   19   20 ar
    44   19   46 1 
    45   20   21 1 
    46   21   22 2 
    47   21   23 1 
##########                 Name:            E29684936
##########          Protonation:                   64
##########               SMILES:   CC[NH+]1CCN(CC1)CCCOc2ccc(cc2)F
##########            Long Name:   1-ethyl-4-[3-(4-fluorophenoxy)propyl]piperazin-1-ium
##########          FlexRecCode: 1
##########               Number:                   14
##########   Ligand Source File: /raidb/db2/rgc/leads-emolecules-300/leads-lt300-emolecules-1d-0000212.db2.gz
##########           GlobalRank: 3532
##########                 Rank:                    1
##########               Setnum:                  122
##########             Matchnum:                 1480
##########                Cloud:                    1
##########        Electrostatic:           -22.945257
##########        Van der Waals:           -21.745811
##########  Ligand Polar Desolv:             6.771855
########## Ligand Apolar Desolv:            -2.478070
##########      Internal Energy:             0.000000
##########      Receptor Energy: 0.0
########## Receptor Desolvation:             0.000000
########## Receptor Hydrophobic:             0.000000
##########         Total Energy: -40.4
##########        Ligand Charge:             1.000000
##########            Arbitrary:    +999.9990
##########     heavy atom count:   19
##########           pose count:    1
##########        Ligand Energy:             0.000000
# num electro vdwattr vdwrepu polsolv apolsol rdesolv rhydroe totalscore fullpol fullapo
#   1    0.85   -0.65    0.09   -1.49   -0.06    0.00    0.00      -1.26   -5.08   -0.19
#   2    0.22   -0.77    0.13   -0.03   -0.11    0.00    0.00      -0.55   -0.09   -0.35
#   3    7.75   -2.06    2.90   -3.49    0.14    0.00    0.00       5.24  -11.03    0.43
#   4  -15.40   -0.34    0.45    5.50    0.19    0.00    0.00      -9.59   16.06    0.56
#   5    0.16   -1.30    0.42    0.12   -0.15    0.00    0.00      -0.75    0.32   -0.41
#   6   -0.57   -0.99    0.21    0.14   -0.15    0.00    0.00      -1.37    0.35   -0.39
#   7    7.79   -0.85    0.06   -3.84    1.00    0.00    0.00       4.16  -12.30    3.19
#   8   -0.56   -0.86    0.12    0.43   -0.12    0.00    0.00      -0.98    1.32   -0.38
#   9    0.86   -1.21    0.18   -0.66   -0.10    0.00    0.00      -0.93   -1.57   -0.24
#  10   -0.22   -0.82    0.07    0.18   -0.04    0.00    0.00      -0.82    0.44   -0.09
#  11   -0.79   -1.64    0.44   -1.35    0.40    0.00    0.00      -2.93   -2.97    0.89
#  12    0.45   -1.69    0.41    0.38   -0.14    0.00    0.00      -0.58    0.85   -0.31
#  13   -1.32   -1.59    0.25   -0.75   -0.22    0.00    0.00      -3.63   -1.43   -0.42
#  14   -0.56   -1.85    0.31   -0.44   -0.28    0.00    0.00      -2.83   -0.72   -0.47
#  15    0.24   -2.40    0.45   -0.08   -0.21    0.00    0.00      -1.99   -0.12   -0.34
#  16   -0.33   -2.96    1.57   -0.12   -0.33    0.00    0.00      -2.17   -0.17   -0.48
#  17   -0.28   -2.36    0.58   -0.33   -0.27    0.00    0.00      -2.66   -0.58   -0.47
#  18   -0.17   -1.77    0.44   -0.43   -0.22    0.00    0.00      -2.16   -0.90   -0.46
#  19   -0.25   -0.61    0.12    0.02   -0.09    0.00    0.00      -0.83    0.06   -0.37
#  20    0.03   -0.56    0.12    0.14   -0.10    0.00    0.00      -0.38    0.58   -0.42
#  21   -0.27   -0.15    0.01    0.39   -0.05    0.00    0.00      -0.07    2.41   -0.28
#  22   -0.24   -0.12    0.01    0.27   -0.03    0.00    0.00      -0.10    2.17   -0.21
#  23   -0.47   -0.48    0.36    0.38   -0.08    0.00    0.00      -0.30    1.26   -0.28
#  24   -1.08   -0.14    0.01    0.67   -0.04    0.00    0.00      -0.58    4.73   -0.28
#  25   -1.22   -0.45    0.21    0.87   -0.04    0.00    0.00      -0.64    3.05   -0.15
#  26   -2.82   -0.43    0.29    1.41   -0.06    0.00    0.00      -1.62    4.98   -0.22
#  27   -4.46   -1.07    1.59    1.72   -0.11    0.00    0.00      -2.32    4.28   -0.28
#  28   -1.18   -0.22    0.01    0.49   -0.06    0.00    0.00      -0.96    1.77   -0.22
#  29   -3.78   -0.67    0.54    0.81   -0.11    0.00    0.00      -3.21    2.07   -0.28
#  30   -0.42   -0.43    0.28    0.25   -0.07    0.00    0.00      -0.39    1.07   -0.28
#  31   -0.89   -0.31    0.06    0.33   -0.07    0.00    0.00      -0.88    1.38   -0.28
#  32   -0.36   -0.80    0.32    0.38   -0.13    0.00    0.00      -0.59    0.80   -0.28
#  33   -0.81   -0.36    0.06    0.44   -0.07    0.00    0.00      -0.74    1.32   -0.22
#  34   -0.42   -0.20    0.03    0.21   -0.05    0.00    0.00      -0.42    1.22   -0.26
#  35   -0.20   -0.30    0.04    0.28   -0.07    0.00    0.00      -0.25    1.03   -0.27
#  36    1.80   -0.34    0.06    0.82   -0.08    0.00    0.00       2.26    2.26   -0.22
#  37    0.76   -0.59    0.46    0.55   -0.13    0.00    0.00       1.05    1.19   -0.28
#  38    0.18   -0.76    0.38    0.45   -0.14    0.00    0.00       0.11    0.90   -0.28
#  39   -0.04   -0.31    0.05    0.38   -0.08    0.00    0.00       0.00    1.28   -0.28
#  40   -0.48   -0.09    0.00    0.16   -0.02    0.00    0.00      -0.43    1.82   -0.21
#  41   -2.35   -0.46    0.32    0.47   -0.05    0.00    0.00      -2.07    1.90   -0.21
#  42   -1.05   -0.13    0.01    0.52   -0.03    0.00    0.00      -0.68    4.23   -0.28
#  43   -1.02   -0.10    0.00    0.61   -0.03    0.00    0.00      -0.54    5.51   -0.28
@<TRIPOS>MOLECULE
E29684936
   43    44     0     0     0
SMALL
USER_CHARGES


@<TRIPOS>ATOM
      1 C1         26.1471   23.1411   58.7627 C.3       1            -0.1869
      2 C2         24.8393   22.8182   59.4882 C.3       1            -0.0219
      3 N1         24.6494   21.3620   59.5304 N.4       1            -0.3845
      4 H1         24.6101   21.0010   58.5892 H         1             0.4283
      5 C3         23.3931   21.0528   60.2259 C.3       1            -0.0067
      6 C4         23.1871   19.5368   60.2571 C.3       1             0.0252
      7 N2         24.3184   18.9080   60.9531 N.3       1            -0.5359
      8 C5         24.3599   19.3139   62.3643 C.3       1             0.0580
      9 C6         23.0623   18.8902   63.0552 C.3       1            -0.1182
     10 C7         22.9097   17.3704   62.9659 C.3       1             0.0582
     11 O1         21.6977   16.9746   63.6113 O.3       1            -0.3113
     12 C8         21.4094   15.6461   63.6216 C.ar      1             0.1155
     13 C9         20.0887   15.2225   63.6254 C.ar      1            -0.1805
     14 C10        19.7972   13.8721   63.6360 C.ar      1            -0.1132
     15 C11        20.8226   12.9418   63.6434 C.ar      1             0.0669
     16 F1         20.5362   11.6216   63.6541 F         1            -0.1363
     17 C12        22.1414   13.3634   63.6392 C.ar      1            -0.1112
     18 C13        22.4358   14.7131   63.6229 C.ar      1            -0.1198
     19 C14        25.5840   19.2248   60.2766 C.3       1             0.0185
     20 C15        25.7733   20.7428   60.2453 C.3       1            -0.0022
     21 H2         26.2881   24.2215   58.7313 H         1             0.0824
     22 H3         26.9804   22.6812   59.2938 H         1             0.0799
     23 H4         26.1046   22.7506   57.7459 H         1             0.1057
     24 H5         24.8819   23.2087   60.5049 H         1             0.1316
     25 H6         24.0060   23.2780   58.9570 H         1             0.1261
     26 H7         23.4389   21.4342   61.2458 H         1             0.1372
     27 H8         22.5615   21.5215   59.6996 H         1             0.1400
     28 H9         22.2616   19.3061   60.7847 H         1             0.0621
     29 H10        23.1299   19.1561   59.2375 H         1             0.1237
     30 H11        25.2065   18.8343   62.8556 H         1             0.0502
     31 H12        24.4685   20.3966   62.4279 H         1             0.0936
     32 H13        23.0930   19.1914   64.1023 H         1             0.0899
     33 H14        22.2156   19.3698   62.5639 H         1             0.0759
     34 H15        22.8790   17.0692   61.9189 H         1             0.0636
     35 H16        23.7564   16.8908   63.4573 H         1             0.0673
     36 H17        19.2885   15.9478   63.6204 H         1             0.1354
     37 H18        18.7688   13.5418   63.6389 H         1             0.1405
     38 H19        22.9404   12.6368   63.6446 H         1             0.1463
     39 H20        23.4646   15.0417   63.6154 H         1             0.1427
     40 H21        26.4111   18.7658   60.8183 H         1             0.0620
     41 H22        25.5580   18.8400   59.2571 H         1             0.1257
     42 H23        26.7055   20.9821   59.7336 H         1             0.1401
     43 H24        25.8102   21.1256   61.2653 H         1             0.1362
@<TRIPOS>BOND
     1    1    2 1 
     2    1   21 1 
     3    1   22 1 
     4    1   23 1 
     5    2    3 1 
     6    2   24 1 
     7    2   25 1 
     8    3    4 1 
     9    3   20 1 
    10    3    5 1 
    11    5    6 1 
    12    5   26 1 
    13    5   27 1 
    14    6    7 1 
    15    6   28 1 
    16    6   29 1 
    17    7    8 1 
    18    7   19 1 
    19    8    9 1 
    20    8   30 1 
    21    8   31 1 
    22    9   10 1 
    23    9   32 1 
    24    9   33 1 
    25   10   11 1 
    26   10   34 1 
    27   10   35 1 
    28   11   12 1 
    29   12   18 ar
    30   12   13 ar
    31   13   14 ar
    32   13   36 1 
    33   14   15 ar
    34   14   37 1 
    35   15   16 1 
    36   15   17 ar
    37   17   18 ar
    38   17   38 1 
    39   18   39 1 
    40   19   20 1 
    41   19   40 1 
    42   19   41 1 
    43   20   42 1 
    44   20   43 1 
##########                 Name:            E35684392
##########          Protonation:                   25
##########               SMILES:   C[NH+]1CCN(CC1)C(=O)c2ccc(=O)n(n2)CCOC
##########            Long Name:   2-(2-methoxyethyl)-6-(4-methylpiperazin-4-ium-1-carbonyl)pyridazin-3-one
##########          FlexRecCode: 1
##########               Number:                  605
##########   Ligand Source File: /raidb/db2/rgc/leads-emolecules-300/leads-lt300-emolecules-1j-0000096.db2.gz
##########           GlobalRank: 3546
##########                 Rank:                    1
##########               Setnum:                  215
##########             Matchnum:                 4567
##########                Cloud:                    1
##########        Electrostatic:           -27.902786
##########        Van der Waals:           -22.890375
##########  Ligand Polar Desolv:            11.591576
########## Ligand Apolar Desolv:            -1.189631
##########      Internal Energy:             0.000000
##########      Receptor Energy: 0.0
########## Receptor Desolvation:             0.000000
########## Receptor Hydrophobic:             0.000000
##########         Total Energy: -40.39
##########        Ligand Charge:             1.000000
##########            Arbitrary:    +999.9990
##########     heavy atom count:   20
##########           pose count:    1
##########        Ligand Energy:             0.000000
# num electro vdwattr vdwrepu polsolv apolsol rdesolv rhydroe totalscore fullpol fullapo
#   1    0.30   -1.66    0.34    0.23    0.02    0.00    0.00      -0.77    0.35    0.03
#   2   -3.53   -2.64    1.77   -3.88    0.81    0.00    0.00      -7.47   -6.11    1.27
#   3    0.42   -1.29    0.22    0.39   -0.08    0.00    0.00      -0.34    0.66   -0.13
#   4    0.66   -1.29    0.29    0.78   -0.26    0.00    0.00       0.18    1.31   -0.44
#   5   -1.52   -1.61    0.29   -1.99    0.78    0.00    0.00      -4.05   -3.45    1.35
#   6   -0.89   -1.66    0.34   -0.63    0.29    0.00    0.00      -2.55   -1.38    0.64
#   7    0.01   -1.57    0.30   -0.06   -0.31    0.00    0.00      -1.63   -0.13   -0.73
#   8    0.04   -1.56    0.31   -0.04   -0.19    0.00    0.00      -1.44   -0.09   -0.45
#   9    0.10   -2.14    0.68   -0.88   -0.24    0.00    0.00      -2.49   -1.76   -0.48
#  10    1.35   -2.15    0.64    1.51   -0.37    0.00    0.00       0.98    2.55   -0.63
#  11   -2.44   -3.16    0.96   -0.53    0.27    0.00    0.00      -4.90   -0.82    0.42
#  12   -0.98   -1.82    0.37    3.70   -0.29    0.00    0.00       0.99    8.22   -0.64
#  13    0.14   -4.04    2.27   -2.87    0.20    0.00    0.00      -4.30   -5.55    0.38
#  14    4.80   -1.16    0.07   -5.01    0.82    0.00    0.00      -0.48  -12.27    2.00
#  15   -1.13   -1.42    0.53    0.69   -0.20    0.00    0.00      -1.52    1.68   -0.48
#  16    0.30   -0.69    0.07    0.10   -0.14    0.00    0.00      -0.35    0.30   -0.40
#  17    9.20   -1.44    0.62   -4.52    0.15    0.00    0.00       4.00  -11.96    0.39
#  18  -13.37   -0.07    0.01    4.93    0.16    0.00    0.00      -8.34   16.66    0.55
#  19    1.37   -2.17    2.02   -0.67   -0.22    0.00    0.00       0.33   -1.46   -0.48
#  20    0.36   -1.07    0.26    0.04   -0.15    0.00    0.00      -0.57    0.11   -0.40
#  21   -0.65   -0.91    0.20    0.41   -0.18    0.00    0.00      -1.14    0.98   -0.44
#  22    0.71   -0.50    0.13    1.52   -0.13    0.00    0.00       1.72    3.20   -0.28
#  23    0.32   -0.61    0.12    0.45   -0.16    0.00    0.00       0.12    0.76   -0.28
#  24    0.87   -0.65    0.35    0.00   -0.12    0.00    0.00       0.43   -0.01   -0.28
#  25    0.99   -0.40    0.08   -0.04   -0.11    0.00    0.00       0.52   -0.09   -0.28
#  26    0.65   -0.57    0.28    0.76   -0.13    0.00    0.00       0.98    1.61   -0.28
#  27    0.43   -0.53    0.21    0.55   -0.13    0.00    0.00       0.53    1.05   -0.25
#  28    0.81   -0.55    0.26    1.43   -0.13    0.00    0.00       1.81    3.19   -0.28
#  29   -0.43   -0.25    0.03    0.45   -0.07    0.00    0.00      -0.26    1.83   -0.27
#  30   -0.85   -0.74    0.84    0.53   -0.12    0.00    0.00      -0.35    1.20   -0.28
#  31   -2.40   -0.72    0.64    0.52   -0.09    0.00    0.00      -2.05    1.40   -0.24
#  32   -0.88   -0.84    0.48    1.52   -0.11    0.00    0.00       0.17    3.75   -0.28
#  33   -2.11   -0.23    0.04    0.77   -0.06    0.00    0.00      -1.59    3.56   -0.28
#  34   -1.58   -0.14    0.01    0.92   -0.04    0.00    0.00      -0.84    6.53   -0.28
#  35   -4.34   -1.53    4.70    2.38   -0.14    0.00    0.00       1.06    4.79   -0.28
#  36   -2.84   -0.33    0.05    1.76   -0.10    0.00    0.00      -1.46    4.92   -0.28
#  37   -3.94   -1.09    1.72    1.48   -0.11    0.00    0.00      -1.95    3.61   -0.28
#  38   -2.91   -0.79    0.80    1.62   -0.12    0.00    0.00      -1.40    3.65   -0.28
#  39   -1.85   -0.20    0.02    1.45   -0.06    0.00    0.00      -0.64    6.48   -0.28
#  40   -0.68   -0.56    0.80    1.05   -0.08    0.00    0.00       0.54    3.79   -0.28
#  41   -2.38   -0.28    0.03    0.81   -0.02    0.00    0.00      -1.84    2.39   -0.06
@<TRIPOS>MOLECULE
E35684392
   41    42     0     0     0
SMALL
USER_CHARGES


@<TRIPOS>ATOM
      1 C1         16.5768   15.2321   66.0427 C.3       1             0.0290
      2 O1         17.2603   14.5384   64.9970 O.3       1            -0.3982
      3 C2         18.6331   14.9087   64.8543 C.3       1             0.0432
      4 C3         19.2613   14.1079   63.7119 C.3       1             0.1073
      5 N1         20.6686   14.4877   63.5657 N.am      1            -0.3321
      6 N2         20.9862   15.7313   63.5962 N.2       1            -0.1699
      7 C4         22.2283   16.1415   63.4716 C.2       1             0.0113
      8 C5         23.2741   15.2034   63.2960 C.2       1            -0.0415
      9 C6         22.9534   13.8788   63.2616 C.2       1            -0.1701
     10 C7         21.5942   13.5230   63.4086 C.2       1             0.4801
     11 O2         21.2610   12.3498   63.3889 O.2       1            -0.5025
     12 C8         22.5349   17.5876   63.5145 C.2       1             0.6045
     13 O3         22.7843   18.1247   64.5760 O.2       1            -0.4959
     14 N3         22.5376   18.3098   62.3767 N.am      1            -0.6205
     15 C9         22.8460   19.7469   62.3988 C.3       1             0.0881
     16 C10        23.9520   20.0018   61.3701 C.3       1            -0.0197
     17 N4         23.5290   19.4872   60.0615 N.4       1            -0.3875
     18 H1         24.2260   19.7200   59.3700 H         1             0.4254
     19 C11        22.2487   20.1030   59.6876 C.3       1            -0.0472
     20 C12        23.3671   18.0289   60.1162 C.3       1            -0.0201
     21 C13        22.2383   17.6776   61.0837 C.3       1             0.0588
     22 H2         15.5413   14.8949   66.0862 H         1             0.0847
     23 H3         17.0660   15.0270   66.9950 H         1             0.0503
     24 H4         16.6020   16.3037   65.8447 H         1             0.0458
     25 H5         18.7008   15.9736   64.6317 H         1             0.0644
     26 H6         19.1649   14.6968   65.7819 H         1             0.0838
     27 H7         19.1935   13.0431   63.9345 H         1             0.1314
     28 H8         18.7296   14.3198   62.7843 H         1             0.1148
     29 H9         24.2987   15.5285   63.1918 H         1             0.1671
     30 H10        23.7152   13.1248   63.1295 H         1             0.1768
     31 H11        21.9570   20.3194   62.1343 H         1             0.1386
     32 H12        23.1919   20.0350   63.3916 H         1             0.0992
     33 H13        24.1400   21.0728   61.2962 H         1             0.1338
     34 H14        24.8640   19.4933   61.6832 H         1             0.1454
     35 H15        21.9324   19.7227   58.7164 H         1             0.1254
     36 H16        21.4955   19.8583   60.4366 H         1             0.1252
     37 H17        22.3683   21.1851   59.6327 H         1             0.1214
     38 H18        23.1257   17.6522   59.1223 H         1             0.1307
     39 H19        24.2945   17.5727   60.4627 H         1             0.1440
     40 H20        22.1821   16.5959   61.2062 H         1             0.0964
     41 H21        21.2928   18.0577   60.6971 H         1             0.1779
@<TRIPOS>BOND
     1    1    2 1 
     2    1   22 1 
     3    1   23 1 
     4    1   24 1 
     5    2    3 1 
     6    3    4 1 
     7    3   25 1 
     8    3   26 1 
     9    4    5 1 
    10    4   27 1 
    11    4   28 1 
    12    5   10 am
    13    5    6 1 
    14    6    7 2 
    15    7    8 1 
    16    7   12 1 
    17    8    9 2 
    18    8   29 1 
    19    9   10 1 
    20    9   30 1 
    21   10   11 2 
    22   12   13 2 
    23   12   14 am
    24   14   21 1 
    25   14   15 1 
    26   15   16 1 
    27   15   31 1 
    28   15   32 1 
    29   16   17 1 
    30   16   33 1 
    31   16   34 1 
    32   17   18 1 
    33   17   19 1 
    34   17   20 1 
    35   19   35 1 
    36   19   36 1 
    37   19   37 1 
    38   20   21 1 
    39   20   38 1 
    40   20   39 1 
    41   21   40 1 
    42   21   41 1 
##########                 Name:            E45763759
##########          Protonation:                   29
##########               SMILES:   CN(CCCc1c(c(n[nH]1)N)C#N)c2cc[nH+]cc2Cl
##########            Long Name:   (3-chloropyridin-1-ium-4-yl)-methyl-amino]propyl]-1H-pyrazole-4-carbonitrile
##########          FlexRecCode: 1
##########               Number:                  216
##########   Ligand Source File: /raidb/db2/rgc/leads-emolecules-300/leads-emolecules-2e-0000035.db2.gz
##########           GlobalRank: 3583
##########                 Rank:                    1
##########               Setnum:                  200
##########             Matchnum:                 2851
##########                Cloud:                    1
##########        Electrostatic:           -20.083075
##########        Van der Waals:           -25.497746
##########  Ligand Polar Desolv:             6.936284
########## Ligand Apolar Desolv:            -1.725396
##########      Internal Energy:             0.000000
##########      Receptor Energy: 0.0
########## Receptor Desolvation:             0.000000
########## Receptor Hydrophobic:             0.000000
##########         Total Energy: -40.37
##########        Ligand Charge:             1.000000
##########            Arbitrary:    +999.9990
##########     heavy atom count:   20
##########           pose count:    1
##########        Ligand Energy:             0.000000
# num electro vdwattr vdwrepu polsolv apolsol rdesolv rhydroe totalscore fullpol fullapo
#   1   -1.42   -1.16    0.38    0.75   -0.21    0.00    0.00      -1.66    2.06   -0.57
#   2    9.03   -0.82    0.05   -4.00    0.39    0.00    0.00       4.65  -13.39    1.30
#   3   -1.16   -0.65    0.07    0.92   -0.13    0.00    0.00      -0.95    2.88   -0.42
#   4    0.79   -0.72    0.11   -0.76   -0.07    0.00    0.00      -0.65   -2.20   -0.20
#   5    0.05   -1.19    0.31   -0.45   -0.10    0.00    0.00      -1.38   -1.08   -0.24
#   6    0.14   -1.81    0.46    1.29   -0.34    0.00    0.00      -0.26    2.72   -0.71
#   7   -0.75   -1.72    0.43   -1.29   -0.23    0.00    0.00      -3.57   -2.33   -0.42
#   8    2.01   -1.63    0.31    1.18   -0.73    0.00    0.00       1.14    2.37   -1.46
#   9   -6.20   -2.26    0.92   -1.38    0.36    0.00    0.00      -8.57   -2.73    0.71
#  10    1.45   -2.38    0.49    1.37   -1.44    0.00    0.00      -0.51    2.20   -2.31
#  11   -1.62   -3.23    0.86   -4.08    0.61    0.00    0.00      -7.46   -6.16    0.92
#  12   -1.37   -4.49    2.87   -1.52    0.76    0.00    0.00      -3.74   -2.54    1.27
#  13    0.44   -2.64    0.99   -2.26    0.36    0.00    0.00      -3.11   -4.42    0.70
#  14   -5.55   -1.05    0.21    1.74   -0.17    0.00    0.00      -4.82    5.76   -0.55
#  15    1.90   -1.18    0.55   -0.91   -0.12    0.00    0.00       0.24   -3.71   -0.47
#  16   -1.64   -1.07    0.36    1.56   -0.25    0.00    0.00      -1.04    6.15   -0.97
#  17    5.98   -1.17    0.18   -3.70    0.29    0.00    0.00       1.57  -12.37    0.97
#  18   -4.59   -0.01    0.00    3.21    0.11    0.00    0.00      -1.28   16.47    0.59
#  19   -3.22   -2.03    0.81    1.49   -0.33    0.00    0.00      -3.29    4.26   -0.95
#  20    1.78   -1.41    0.26   -1.02   -0.11    0.00    0.00      -0.49   -2.80   -0.29
#  21   -0.68   -3.30    1.01   -0.50   -0.39    0.00    0.00      -3.86   -1.13   -0.87
#  22   -1.18   -0.82    1.01    0.38   -0.10    0.00    0.00      -0.72    1.06   -0.28
#  23   -0.47   -0.21    0.02    0.20   -0.07    0.00    0.00      -0.53    0.84   -0.28
#  24   -1.06   -0.71    1.02    0.36   -0.10    0.00    0.00      -0.48    1.01   -0.28
#  25   -0.63   -0.35    0.21    0.36   -0.06    0.00    0.00      -0.46    1.83   -0.28
#  26   -0.76   -0.23    0.02    0.55   -0.07    0.00    0.00      -0.49    2.10   -0.28
#  27   -0.47   -0.31    0.15    0.22   -0.06    0.00    0.00      -0.47    1.00   -0.28
#  28   -0.41   -0.21    0.03    0.14   -0.04    0.00    0.00      -0.49    0.71   -0.21
#  29   -0.05   -0.70    0.69    0.57   -0.10    0.00    0.00       0.42    1.67   -0.28
#  30    0.11   -0.45    0.12    1.04   -0.11    0.00    0.00       0.72    2.77   -0.28
#  31    1.26   -0.04    0.00    1.92    0.32    0.00    0.00       3.45    3.53    0.58
#  32   -0.67   -0.10    0.01    2.26    0.39    0.00    0.00       1.89    3.41    0.59
#  33   -1.65   -0.04    0.00    2.57    0.16    0.00    0.00       1.04    6.45    0.40
#  34   -1.93   -0.15    0.02    0.77   -0.04    0.00    0.00      -1.32    5.71   -0.28
#  35   -1.21   -0.14    0.01    1.53   -0.04    0.00    0.00       0.15   10.30   -0.28
#  36   -6.36   -0.76    0.72    2.43   -0.10    0.00    0.00      -4.06    6.77   -0.28
@<TRIPOS>MOLECULE
E45763759
   36    37     0     0     0
SMALL
USER_CHARGES


@<TRIPOS>ATOM
      1 C1         24.7810   17.3752   59.7757 C.3       1             0.1059
      2 N1         24.5607   18.3503   60.8468 N.pl3     1            -0.6854
      3 C2         24.3432   17.8922   62.2211 C.3       1             0.1393
      4 C3         23.6667   16.5201   62.2002 C.3       1            -0.1470
      5 C4         23.4394   16.0416   63.6357 C.3       1            -0.0684
      6 C5         22.7731   14.6901   63.6152 C.2       1             0.1782
      7 C6         21.4133   14.4506   63.6041 C.2       1            -0.2284
      8 C7         20.3757   15.4376   63.6096 C.1       1             0.2923
      9 N2         19.5527   16.2206   63.6139 N.1       1            -0.4381
     10 C8         21.2374   13.0434   63.5859 C.2       1             0.3904
     11 N3         20.0159   12.3681   63.5703 N.pl3     1            -0.8343
     12 N4         22.4243   12.4900   63.5862 N.2       1            -0.3403
     13 N5         23.3937   13.4989   63.5985 N.pl3     1            -0.4422
     14 C9         24.5584   19.7126   60.5584 C.ar      1             0.3183
     15 C10        25.6814   20.3293   60.0081 C.ar      1            -0.1297
     16 C11        25.6387   21.6807   59.7370 C.ar      1             0.1460
     17 N6         24.5537   22.3887   59.9924 N.ar      1            -0.4402
     18 H1         24.5532   23.3377   59.7912 H         1             0.4586
     19 C12        23.4708   21.8427   60.5120 C.ar      1             0.1451
     20 C13        23.4300   20.4950   60.8071 C.ar      1            -0.0858
     21 Cl1        21.9979   19.7849   61.4844 Cl        1             0.0397
     22 H2         24.9227   17.8994   58.8306 H         1             0.0584
     23 H3         25.6688   16.7838   59.9998 H         1             0.0624
     24 H4         23.9155   16.7170   59.7001 H         1             0.0818
     25 H5         25.3015   17.8170   62.7350 H         1             0.0759
     26 H6         23.7050   18.6040   62.7447 H         1             0.0956
     27 H7         22.7083   16.5953   61.6864 H         1             0.0785
     28 H8         24.3048   15.8083   61.6767 H         1             0.0738
     29 H9         24.3978   15.9665   64.1495 H         1             0.0985
     30 H10        22.8012   16.7533   64.1593 H         1             0.0961
     31 H11        19.1849   12.8686   63.5715 H         1             0.4132
     32 H12        19.9979   11.3984   63.5584 H         1             0.4130
     33 H13        24.3539   13.3612   63.5975 H         1             0.4496
     34 H14        26.5725   19.7566   59.7974 H         1             0.1945
     35 H15        26.5040   22.1664   59.3107 H         1             0.2183
     36 H16        22.6040   22.4573   60.7051 H         1             0.2165
@<TRIPOS>BOND
     1    1    2 1 
     2    1   22 1 
     3    1   23 1 
     4    1   24 1 
     5    2    3 1 
     6    2   14 1 
     7    3    4 1 
     8    3   25 1 
     9    3   26 1 
    10    4    5 1 
    11    4   27 1 
    12    4   28 1 
    13    5    6 1 
    14    5   29 1 
    15    5   30 1 
    16    6   13 1 
    17    6    7 2 
    18    7    8 1 
    19    7   10 1 
    20    8    9 3 
    21   10   11 1 
    22   10   12 2 
    23   11   31 1 
    24   11   32 1 
    25   12   13 1 
    26   13   33 1 
    27   14   20 ar
    28   14   15 ar
    29   15   16 ar
    30   15   34 1 
    31   16   17 ar
    32   16   35 1 
    33   17   18 1 
    34   17   19 ar
    35   19   20 ar
    36   19   36 1 
    37   20   21 1 
##########                 Name:            E46131110
##########          Protonation:                   60
##########               SMILES:   Cn1cc(cn1)C[NH+]2CC[C@@H]3C[C@H](O[C@H]3C2)c4ccncn4
##########            Long Name:   methyl]-2-pyrimidin-4-yl-2,3,3a,4,5,6,7,7a-octahydrofuro[2,3-c]pyridin-6-ium
##########          FlexRecCode: 1
##########               Number:                 1113
##########   Ligand Source File: /raidb/db2/rgc/leads-emolecules-300/leads-emolecules-3-cp-0000012.db2.gz
##########           GlobalRank: 3583
##########                 Rank:                    1
##########               Setnum:                    6
##########             Matchnum:                  114
##########                Cloud:                    1
##########        Electrostatic:           -22.333731
##########        Van der Waals:           -23.731827
##########  Ligand Polar Desolv:             8.219167
########## Ligand Apolar Desolv:            -2.524675
##########      Internal Energy:             0.000000
##########      Receptor Energy: 0.0
########## Receptor Desolvation:             0.000000
########## Receptor Hydrophobic:             0.000000
##########         Total Energy: -40.37
##########        Ligand Charge:             1.000000
##########            Arbitrary:    +999.9990
##########     heavy atom count:   22
##########           pose count:    1
##########        Ligand Energy:             0.000000
# num electro vdwattr vdwrepu polsolv apolsol rdesolv rhydroe totalscore fullpol fullapo
#   1   -0.70   -0.73    0.08    0.46   -0.21    0.00    0.00      -1.11    1.30   -0.61
#   2    3.00   -0.94    0.08   -1.94    0.38    0.00    0.00       0.59   -6.41    1.27
#   3   -1.60   -1.94    1.15    0.63   -0.27    0.00    0.00      -2.02    1.98   -0.83
#   4    3.66   -1.06    0.19   -1.89   -0.09    0.00    0.00       0.81   -6.57   -0.33
#   5   -0.91   -0.77    0.13    0.78   -0.10    0.00    0.00      -0.88    2.56   -0.33
#   6    7.11   -0.93    0.19   -3.64    0.14    0.00    0.00       2.86  -11.28    0.42
#   7  -10.05   -0.03    0.00    3.34    0.11    0.00    0.00      -6.63   16.42    0.55
#   8    0.40   -1.23    0.34   -0.03   -0.16    0.00    0.00      -0.68   -0.08   -0.39
#   9    2.22   -1.01    0.14   -1.59   -0.10    0.00    0.00      -0.35   -3.46   -0.22
#  10    1.37   -0.74    0.06   -1.32   -0.08    0.00    0.00      -0.71   -3.01   -0.18
#  11   -0.03   -1.19    0.37   -1.07   -0.12    0.00    0.00      -2.03   -2.39   -0.27
#  12    0.04   -1.11    0.21    0.96   -0.07    0.00    0.00       0.03    2.19   -0.17
#  13    1.48   -0.93    0.07   -2.69    0.47    0.00    0.00      -1.60   -7.22    1.26
#  14   -0.40   -0.63    0.03    0.26   -0.04    0.00    0.00      -0.78    0.70   -0.11
#  15   -0.10   -0.53    0.03    0.28   -0.13    0.00    0.00      -0.44    0.94   -0.42
#  16    0.37   -1.67    0.39    0.73   -0.31    0.00    0.00      -0.50    1.58   -0.67
#  17   -0.09   -1.98    0.56   -1.08   -0.22    0.00    0.00      -2.80   -2.19   -0.44
#  18    0.38   -3.17    1.26    0.53   -0.57    0.00    0.00      -1.58    0.91   -0.98
#  19   -2.10   -2.75    0.58   -1.96    1.34    0.00    0.00      -4.89   -3.07    2.10
#  20    1.31   -1.82    0.28    0.91   -1.92    0.00    0.00      -1.25    1.50   -3.17
#  21   -2.69   -1.58    0.26   -2.21    1.02    0.00    0.00      -5.19   -4.12    1.91
#  22   -0.37   -0.55    0.02    0.24   -0.23    0.00    0.00      -0.89    1.11   -1.05
#  23    1.08   -0.60    0.02   -1.48    0.34    0.00    0.00      -0.64   -5.73    1.30
#  24   -1.25   -0.29    0.07    0.34   -0.07    0.00    0.00      -1.21    1.40   -0.28
#  25   -0.39   -0.19    0.01    0.56   -0.06    0.00    0.00      -0.07    2.55   -0.28
#  26   -0.63   -0.24    0.03    0.11   -0.06    0.00    0.00      -0.79    0.50   -0.28
#  27   -4.96   -0.92    1.78    2.20   -0.09    0.00    0.00      -1.99    6.56   -0.28
#  28   -1.01   -0.19    0.02    1.11   -0.05    0.00    0.00      -0.12    5.97   -0.28
#  29   -1.93   -0.57    0.47    1.33   -0.04    0.00    0.00      -0.74    4.90   -0.15
#  30   -3.92   -0.63    0.41    1.49   -0.07    0.00    0.00      -2.73    4.03   -0.20
#  31   -3.92   -0.60    0.28    1.96   -0.11    0.00    0.00      -2.39    4.80   -0.28
#  32   -1.54   -0.61    0.38    1.28   -0.08    0.00    0.00      -0.57    3.56   -0.22
#  33   -2.12   -0.34    0.05    0.92   -0.10    0.00    0.00      -1.60    2.56   -0.28
#  34   -1.22   -0.32    0.10    0.66   -0.09    0.00    0.00      -0.88    2.16   -0.28
#  35    0.16   -0.78    0.83    0.92   -0.12    0.00    0.00       1.01    2.23   -0.28
#  36    0.48   -0.36    0.12    0.12   -0.09    0.00    0.00       0.27    0.35   -0.26
#  37    0.26   -0.73    0.46    0.73   -0.12    0.00    0.00       0.59    1.67   -0.28
#  38   -0.70   -0.28    0.03    1.06   -0.06    0.00    0.00       0.05    3.60   -0.20
#  39   -2.02   -0.24    0.03    1.24   -0.07    0.00    0.00      -1.05    4.99   -0.28
#  40   -1.35   -0.11    0.00    0.66   -0.03    0.00    0.00      -0.83    6.07   -0.28
#  41   -0.21   -0.33    0.06    0.97   -0.08    0.00    0.00       0.40    2.95   -0.25
#  42    0.23   -1.48    2.19    1.24   -0.15    0.00    0.00       2.02    2.26   -0.28
#  43    0.95   -0.42    0.11    0.78   -0.13    0.00    0.00       1.28    1.64   -0.28
#  44   -0.61   -0.07    0.00    0.32   -0.02    0.00    0.00      -0.37    4.92   -0.28
@<TRIPOS>MOLECULE
E46131110
   44    47     0     0     0
SMALL
USER_CHARGES


@<TRIPOS>ATOM
      1 C1         23.7057   25.3534   59.9597 C.3       1             0.0859
      2 N1         24.3630   24.0982   60.3326 N.pl3     1            -0.3515
      3 C2         23.7585   23.0097   60.8532 C.2       1             0.0985
      4 C3         24.7086   22.0679   61.0562 C.2       1            -0.3179
      5 C4         24.4842   20.6900   61.6236 C.3       1             0.0720
      6 N2         24.1973   19.7511   60.5308 N.4       1            -0.3745
      7 H1         24.7978   19.9664   59.7491 H         1             0.4327
      8 C5         22.8041   19.9157   60.1179 C.3       1            -0.0160
      9 C6         21.8227   19.5485   61.2435 C.3       1            -0.1284
     10 C7         22.1179   18.1113   61.6361 C.3       1            -0.1396
     11 C8         21.3689   17.5783   62.8605 C.3       1            -0.1281
     12 C9         22.4402   16.7130   63.5753 C.3       1             0.1321
     13 O1         23.6658   16.8318   62.8068 O.3       1            -0.3364
     14 C10        23.5798   18.0979   62.1682 C.3       1             0.0462
     15 C11        24.4848   18.3781   60.9914 C.3       1             0.0079
     16 C12        21.9956   15.2736   63.6133 C.ar      1             0.1607
     17 C13        22.9297   14.2494   63.6049 C.ar      1            -0.2074
     18 C14        22.4739   12.9413   63.6408 C.ar      1             0.1540
     19 N3         21.1706   12.7145   63.6816 N.ar      1            -0.5130
     20 C15        20.3114   13.7137   63.6883 C.ar      1             0.3054
     21 N4         20.7084   14.9703   63.6604 N.ar      1            -0.5145
     22 C16        25.9357   22.5989   60.6456 C.2       1             0.0712
     23 N5         25.7287   23.8138   60.2059 N.2       1            -0.2711
     24 H2         22.6391   25.2822   60.1723 H         1             0.0894
     25 H3         24.1367   26.1736   60.5339 H         1             0.0989
     26 H4         23.8526   25.5383   58.8956 H         1             0.1025
     27 H5         22.7052   22.9087   61.0695 H         1             0.1837
     28 H6         25.3787   20.3659   62.1556 H         1             0.1401
     29 H7         23.6402   20.7140   62.3130 H         1             0.1328
     30 H8         22.6401   20.9539   59.8292 H         1             0.1320
     31 H9         22.6115   19.2754   59.2570 H         1             0.1299
     32 H10        21.9748   20.2066   62.0991 H         1             0.0923
     33 H11        20.7968   19.6333   60.8853 H         1             0.1184
     34 H12        22.0061   17.4451   60.7806 H         1             0.1060
     35 H13        21.0452   18.3984   63.5015 H         1             0.0962
     36 H14        20.5194   16.9668   62.5566 H         1             0.0984
     37 H15        22.5999   17.0818   64.5885 H         1             0.1118
     38 H16        23.7052   18.8887   62.9079 H         1             0.0894
     39 H17        24.2821   17.6680   60.1898 H         1             0.1405
     40 H18        25.5271   18.3014   61.3013 H         1             0.1446
     41 H19        23.9873   14.4658   63.5710 H         1             0.1537
     42 H20        23.1727   12.1178   63.6353 H         1             0.1738
     43 H21        19.2538   13.4973   63.7216 H         1             0.2036
     44 H22        26.8887   22.0920   60.6807 H         1             0.1939
@<TRIPOS>BOND
     1    1    2 1 
     2    1   24 1 
     3    1   25 1 
     4    1   26 1 
     5    2   23 1 
     6    2    3 1 
     7    3    4 2 
     8    3   27 1 
     9    4    5 1 
    10    4   22 1 
    11    5    6 1 
    12    5   28 1 
    13    5   29 1 
    14    6    7 1 
    15    6   15 1 
    16    6    8 1 
    17    8    9 1 
    18    8   30 1 
    19    8   31 1 
    20    9   10 1 
    21    9   32 1 
    22    9   33 1 
    23   10   14 1 
    24   10   11 1 
    25   10   34 1 
    26   11   12 1 
    27   11   35 1 
    28   11   36 1 
    29   12   13 1 
    30   12   16 1 
    31   12   37 1 
    32   13   14 1 
    33   14   15 1 
    34   14   38 1 
    35   15   39 1 
    36   15   40 1 
    37   16   21 ar
    38   16   17 ar
    39   17   18 ar
    40   17   41 1 
    41   18   19 ar
    42   18   42 1 
    43   19   20 ar
    44   20   21 ar
    45   20   43 1 
    46   22   23 2 
    47   22   44 1 
##########                 Name:              E569897
##########          Protonation:                  100
##########               SMILES:   Cc1ccc(cc1)c2c(cn(n2)c3ccc(cc3)F)C=O
##########            Long Name:   1-(4-fluorophenyl)-3-(p-tolyl)pyrazole-4-carbaldehyde
##########          FlexRecCode: 1
##########               Number:                  696
##########   Ligand Source File: /raidb/db2/rgc/leads-emolecules-300/leads-lt300-emolecules-1j-0000073.db2.gz
##########           GlobalRank: 3592
##########                 Rank:                    1
##########               Setnum:                   12
##########             Matchnum:                 3375
##########                Cloud:                    1
##########        Electrostatic:            -8.432329
##########        Van der Waals:           -31.632616
##########  Ligand Polar Desolv:             4.274241
########## Ligand Apolar Desolv:            -4.571203
##########      Internal Energy:             0.000000
##########      Receptor Energy: 0.0
########## Receptor Desolvation:             0.000000
########## Receptor Hydrophobic:             0.000000
##########         Total Energy: -40.36
##########        Ligand Charge:             0.000000
##########            Arbitrary:    +999.9990
##########     heavy atom count:   21
##########           pose count:    1
##########        Ligand Energy:             0.000000
# num electro vdwattr vdwrepu polsolv apolsol rdesolv rhydroe totalscore fullpol fullapo
#   1    1.84   -0.57    0.05   -0.12   -0.06    0.00    0.00       1.15   -0.39   -0.20
#   2    0.81   -0.87    0.04   -0.03   -0.15    0.00    0.00      -0.21   -0.09   -0.41
#   3    0.80   -1.26    0.16    0.00   -0.17    0.00    0.00      -0.46    0.00   -0.45
#   4    0.14   -1.53    0.22    0.07   -0.19    0.00    0.00      -1.29    0.16   -0.45
#   5    0.00   -1.44    0.29    0.04   -0.17    0.00    0.00      -1.28    0.10   -0.40
#   6    0.54   -1.65    0.57   -0.03   -0.18    0.00    0.00      -0.75   -0.07   -0.41
#   7    1.65   -1.23    0.14   -0.09   -0.19    0.00    0.00       0.28   -0.22   -0.45
#   8    1.10   -1.70    0.38   -0.23   -0.36    0.00    0.00      -0.81   -0.50   -0.77
#   9   -4.21   -2.44    1.13    0.70    0.57    0.00    0.00      -4.26    1.36    1.10
#  10   -3.28   -1.77    0.24    0.43    0.41    0.00    0.00      -3.97    0.75    0.72
#  11    0.79   -1.97    0.44   -0.08   -0.54    0.00    0.00      -1.34   -0.13   -0.90
#  12   -1.50   -1.67    0.30    0.37   -0.25    0.00    0.00      -2.75    0.64   -0.44
#  13    0.96   -2.08    0.50   -0.23   -0.13    0.00    0.00      -0.99   -0.41   -0.23
#  14   -2.42   -3.36    1.23    1.50    0.27    0.00    0.00      -2.78    2.43    0.43
#  15    1.60   -2.18    0.53   -0.08   -0.45    0.00    0.00      -0.57   -0.13   -0.71
#  16   -0.80   -2.69    0.52   -0.12   -0.28    0.00    0.00      -3.37   -0.18   -0.44
#  17   -0.76   -3.23    0.94   -0.13   -0.31    0.00    0.00      -3.48   -0.20   -0.47
#  18    0.98   -2.76    1.27   -0.02   -0.22    0.00    0.00      -0.74   -0.03   -0.34
#  19   -1.19   -1.29    0.22    0.18   -0.32    0.00    0.00      -2.40    0.27   -0.48
#  20   -1.58   -3.30    3.39    0.02   -0.28    0.00    0.00      -1.75    0.04   -0.47
#  21   -1.12   -2.95    1.48    0.08   -0.27    0.00    0.00      -2.78    0.13   -0.45
#  22   -0.74   -0.12    0.00    0.04   -0.03    0.00    0.00      -0.85    0.33   -0.28
#  23   -1.33   -0.29    0.09    0.05   -0.06    0.00    0.00      -1.53    0.26   -0.28
#  24   -1.30   -0.19    0.02    0.06   -0.05    0.00    0.00      -1.46    0.35   -0.28
#  25   -1.00   -0.53    0.44    0.07   -0.08    0.00    0.00      -1.10    0.25   -0.28
#  26    0.16   -0.55    0.23   -0.11   -0.11    0.00    0.00      -0.38   -0.28   -0.28
#  27   -0.68   -0.42    0.13    0.19   -0.09    0.00    0.00      -0.88    0.45   -0.22
#  28   -2.80   -0.31    0.04    0.26   -0.10    0.00    0.00      -2.91    0.73   -0.28
#  29    0.60   -0.58    0.29    0.30   -0.12    0.00    0.00       0.49    0.61   -0.24
#  30   -0.08   -0.34    0.07    0.15   -0.08    0.00    0.00      -0.28    0.41   -0.22
#  31    0.76   -0.68    0.17    0.56   -0.14    0.00    0.00       0.67    0.92   -0.23
#  32    0.16   -0.97    0.48    0.50   -0.18    0.00    0.00      -0.01    0.80   -0.28
#  33    1.58   -0.60    0.28    0.13   -0.14    0.00    0.00       1.25    0.26   -0.28
#  34    1.88   -0.69    0.29   -0.16   -0.14    0.00    0.00       1.18   -0.29   -0.26
@<TRIPOS>MOLECULE
E569897
   34    36     0     0     0
SMALL
USER_CHARGES


@<TRIPOS>ATOM
      1 C1         24.5463   19.2950   60.8468 C.3       1            -0.1205
      2 C2         23.5350   18.4099   61.5289 C.ar      1            -0.0679
      3 C3         23.8289   17.8487   62.7586 C.ar      1            -0.1206
      4 C4         22.9068   17.0375   63.3878 C.ar      1            -0.0782
      5 C5         21.6770   16.7842   62.7820 C.ar      1            -0.0346
      6 C6         21.3863   17.3530   61.5428 C.ar      1            -0.0894
      7 C7         22.3144   18.1665   60.9254 C.ar      1            -0.1193
      8 C8         20.6826   15.9133   63.4526 C.2       1             0.1731
      9 N1         19.4667   16.2516   63.8163 N.2       1            -0.2764
     10 N2         18.8438   15.1532   64.4152 N.pl3     1            -0.3076
     11 C9         19.6845   14.1062   64.4274 C.2       1             0.1339
     12 C10        20.8675   14.5065   63.8307 C.2       1            -0.3224
     13 C11        22.0656   13.6904   63.6207 C.2       1             0.4134
     14 O1         22.0830   12.5331   63.9848 O.2       1            -0.4713
     15 C12        17.5390   15.1458   64.9265 C.ar      1             0.1362
     16 C13        17.3205   14.8733   66.2704 C.ar      1            -0.1074
     17 C14        16.0341   14.8663   66.7724 C.ar      1            -0.1247
     18 C15        14.9620   15.1310   65.9358 C.ar      1             0.0984
     19 F1         13.7041   15.1239   66.4286 F         1            -0.1316
     20 C16        15.1780   15.4028   64.5956 C.ar      1            -0.1286
     21 C17        16.4634   15.4166   64.0910 C.ar      1            -0.0827
     22 H1         25.4398   19.3703   61.4666 H         1             0.0750
     23 H2         24.8101   18.8671   59.8797 H         1             0.0692
     24 H3         24.1206   20.2878   60.7010 H         1             0.0697
     25 H4         24.7820   18.0456   63.2269 H         1             0.1289
     26 H5         23.1377   16.5992   64.3476 H         1             0.1286
     27 H6         20.4353   17.1602   61.0688 H         1             0.1289
     28 H7         22.0888   18.6108   59.9671 H         1             0.1310
     29 H8         19.4739   13.1256   64.8280 H         1             0.1947
     30 H9         22.9336   14.1189   63.1417 H         1             0.1088
     31 H10        18.1561   14.6664   66.9226 H         1             0.1434
     32 H11        15.8637   14.6544   67.8175 H         1             0.1502
     33 H12        14.3407   15.6087   63.9451 H         1             0.1490
     34 H13        16.6317   15.6336   63.0466 H         1             0.1506
@<TRIPOS>BOND
     1    1    2 1 
     2    1   22 1 
     3    1   23 1 
     4    1   24 1 
     5    2    7 ar
     6    2    3 ar
     7    3    4 ar
     8    3   25 1 
     9    4    5 ar
    10    4   26 1 
    11    5    6 ar
    12    5    8 1 
    13    6    7 ar
    14    6   27 1 
    15    7   28 1 
    16    8   12 1 
    17    8    9 2 
    18    9   10 1 
    19   10   11 1 
    20   10   15 1 
    21   11   12 2 
    22   11   29 1 
    23   12   13 1 
    24   13   14 2 
    25   13   30 1 
    26   15   21 ar
    27   15   16 ar
    28   16   17 ar
    29   16   31 1 
    30   17   18 ar
    31   17   32 1 
    32   18   19 1 
    33   18   20 ar
    34   20   21 ar
    35   20   33 1 
    36   21   34 1 
##########                 Name:            E36973522
##########          Protonation:                   66
##########               SMILES:   c1ccc(cc1)C[NH+](CCc2ccncc2)CC(=O)N
##########            Long Name:   (2-amino-2-oxo-ethyl)-benzyl-[2-(4-pyridyl)ethyl]ammonium
##########          FlexRecCode: 1
##########               Number:                  550
##########   Ligand Source File: /raidb/db2/rgc/leads-emolecules-300/leads-emolecules-3-by-0000016.db2.gz
##########           GlobalRank: 3604
##########                 Rank:                    1
##########               Setnum:                   20
##########             Matchnum:                 3054
##########                Cloud:                    1
##########        Electrostatic:           -14.079520
##########        Van der Waals:           -27.480106
##########  Ligand Polar Desolv:             4.637847
########## Ligand Apolar Desolv:            -3.428925
##########      Internal Energy:             0.000000
##########      Receptor Energy: 0.0
########## Receptor Desolvation:             0.000000
########## Receptor Hydrophobic:             0.000000
##########         Total Energy: -40.35
##########        Ligand Charge:             1.000000
##########            Arbitrary:    +999.9990
##########     heavy atom count:   20
##########           pose count:    1
##########        Ligand Energy:             0.000000
# num electro vdwattr vdwrepu polsolv apolsol rdesolv rhydroe totalscore fullpol fullapo
#   1    9.21   -0.73    0.04   -5.08    0.50    0.00    0.00       3.95  -19.66    1.95
#   2   -4.77   -1.14    0.16    3.45   -0.16    0.00    0.00      -2.44   12.17   -0.56
#   3    2.15   -3.33    2.88   -3.99    0.10    0.00    0.00      -2.20  -12.02    0.29
#   4    0.47   -0.56    0.03   -0.36   -0.12    0.00    0.00      -0.53   -1.17   -0.38
#   5    4.30   -0.79    0.04   -4.17    0.13    0.00    0.00      -0.50  -10.29    0.31
#   6   -4.61   -0.02    0.00    4.61    0.14    0.00    0.00       0.13   16.90    0.53
#   7    0.19   -0.83    0.20   -0.10   -0.13    0.00    0.00      -0.68   -0.25   -0.33
#   8    0.03   -0.99    0.15   -1.18   -0.09    0.00    0.00      -2.09   -2.72   -0.21
#   9   -0.15   -1.63    0.37   -0.24   -0.16    0.00    0.00      -1.80   -0.53   -0.36
#  10   -0.16   -1.87    0.49   -1.23   -0.23    0.00    0.00      -3.00   -2.52   -0.46
#  11    0.34   -2.63    0.71    0.12   -0.58    0.00    0.00      -2.04    0.20   -0.98
#  12   -1.79   -2.36    0.40   -2.26    1.30    0.00    0.00      -4.71   -3.57    2.05
#  13    0.57   -1.76    0.25    0.07   -0.59    0.00    0.00      -1.46    0.12   -0.98
#  14   -1.06   -1.62    0.30   -1.26   -0.23    0.00    0.00      -3.87   -2.46   -0.46
#  15   -0.45   -0.92    0.11    0.48   -0.15    0.00    0.00      -0.93    1.11   -0.34
#  16    3.41   -1.97    0.44   -1.39   -0.17    0.00    0.00       0.31   -2.66   -0.32
#  17    1.66   -2.56    0.74   -1.08   -0.26    0.00    0.00      -1.50   -1.85   -0.45
#  18    1.70   -3.45    1.29   -1.75   -0.31    0.00    0.00      -2.53   -2.62   -0.47
#  19    1.16   -3.52    1.22   -1.45   -0.32    0.00    0.00      -2.91   -2.16   -0.47
#  20    2.11   -4.53    4.22   -1.49   -0.28    0.00    0.00       0.02   -2.47   -0.47
#  21    2.50   -3.53    2.54   -1.04   -0.20    0.00    0.00       0.27   -2.00   -0.39
#  22   -3.09   -0.01    0.00    1.03    0.07    0.00    0.00      -1.99    8.58    0.60
#  23   -6.92   -0.02    0.00    1.74    0.09    0.00    0.00      -5.10   11.39    0.59
#  24   -1.94   -0.13    0.00    1.07   -0.03    0.00    0.00      -1.03    7.95   -0.22
#  25   -1.24   -0.24    0.05    1.12   -0.04    0.00    0.00      -0.35    5.90   -0.21
#  26   -0.84   -0.32    0.12    1.41   -0.08    0.00    0.00       0.29    4.85   -0.27
#  27   -1.16   -0.35    0.22    0.68   -0.04    0.00    0.00      -0.66    2.89   -0.18
#  28   -0.13   -0.35    0.06    1.35   -0.07    0.00    0.00       0.85    4.12   -0.22
#  29    0.22   -0.51    0.26    1.96   -0.11    0.00    0.00       1.83    5.11   -0.28
#  30   -0.16   -0.31    0.05    1.40   -0.09    0.00    0.00       0.89    4.38   -0.28
#  31    0.65   -1.04    0.78    0.80   -0.15    0.00    0.00       1.04    1.46   -0.28
#  32    0.95   -0.43    0.15    0.49   -0.12    0.00    0.00       1.04    1.17   -0.28
#  33    1.66   -0.35    0.07    1.19   -0.10    0.00    0.00       2.48    3.38   -0.28
#  34   -4.03   -0.32    0.08    0.88   -0.05    0.00    0.00      -3.44    3.02   -0.18
#  35   -3.13   -0.41    0.09    2.05   -0.10    0.00    0.00      -1.50    5.30   -0.27
#  36   -1.99   -0.61    0.23    2.47   -0.14    0.00    0.00      -0.05    4.93   -0.28
#  37   -1.92   -1.30    1.69    1.25   -0.18    0.00    0.00      -0.46    1.95   -0.28
#  38   -1.65   -0.99    0.67    0.86   -0.20    0.00    0.00      -1.32    1.18   -0.28
#  39   -2.45   -1.15    1.17    0.93   -0.16    0.00    0.00      -1.66    1.68   -0.28
#  40   -3.72   -0.79    0.63    1.30   -0.11    0.00    0.00      -2.69    3.04   -0.26
@<TRIPOS>MOLECULE
E36973522
   40    41     0     0     0
SMALL
USER_CHARGES


@<TRIPOS>ATOM
      1 N1         25.2554   20.7503   61.0926 N.am      1            -0.8221
      2 C1         24.9242   19.9198   62.1011 C.2       1             0.5135
      3 O1         25.0315   20.2896   63.2512 O.2       1            -0.5229
      4 C2         24.4205   18.5319   61.7997 C.3       1            -0.0450
      5 N2         22.9575   18.5595   61.6691 N.4       1            -0.3631
      6 H1         22.5688   19.1727   62.3699 H         1             0.4268
      7 C3         22.4237   17.2036   61.8545 C.3       1            -0.0294
      8 C4         22.3507   16.8841   63.3489 C.3       1            -0.1011
      9 C5         21.8029   15.4931   63.5391 C.ar      1            -0.0571
     10 C6         22.6507   14.3971   63.5884 C.ar      1            -0.1653
     11 C7         22.1121   13.1364   63.7641 C.ar      1             0.1103
     12 N3         20.8094   12.9701   63.8837 N.ar      1            -0.4734
     13 C8         19.9735   13.9892   63.8416 C.ar      1             0.1106
     14 C9         20.4397   15.2795   63.6747 C.ar      1            -0.1639
     15 C10        22.5944   19.0505   60.3331 C.3       1             0.0215
     16 C11        21.1701   19.5428   60.3488 C.ar      1            -0.1594
     17 C12        20.1349   18.6723   60.0630 C.ar      1            -0.0961
     18 C13        18.8285   19.1238   60.0772 C.ar      1            -0.1107
     19 C14        18.5571   20.4456   60.3779 C.ar      1            -0.0842
     20 C15        19.5924   21.3157   60.6646 C.ar      1            -0.1119
     21 C16        20.8985   20.8632   60.6544 C.ar      1            -0.0990
     22 H2         25.5815   21.6429   61.2866 H         1             0.4251
     23 H3         25.1714   20.4538   60.1728 H         1             0.4148
     24 H4         24.8618   18.1796   60.8675 H         1             0.1631
     25 H5         24.7002   17.8598   62.6110 H         1             0.1605
     26 H6         21.4254   17.1438   61.4209 H         1             0.1359
     27 H7         23.0777   16.4849   61.3608 H         1             0.1619
     28 H8         23.3489   16.9439   63.7825 H         1             0.0933
     29 H9         21.6964   17.6026   63.8426 H         1             0.1003
     30 H10        23.7184   14.5267   63.4904 H         1             0.1388
     31 H11        22.7657   12.2776   63.8035 H         1             0.1633
     32 H12        18.9126   13.8138   63.9428 H         1             0.1627
     33 H13        19.7505   16.1106   63.6461 H         1             0.1354
     34 H14        23.2584   19.8685   60.0537 H         1             0.1604
     35 H15        22.6910   18.2408   59.6097 H         1             0.1398
     36 H16        20.3468   17.6398   59.8280 H         1             0.1320
     37 H17        18.0196   18.4440   59.8532 H         1             0.1371
     38 H18        17.5365   20.7986   60.3884 H         1             0.1368
     39 H19        19.3804   22.3484   60.8992 H         1             0.1361
     40 H20        21.7070   21.5421   60.8822 H         1             0.1248
@<TRIPOS>BOND
     1    1    2 am
     2    1   22 1 
     3    1   23 1 
     4    2    3 2 
     5    2    4 1 
     6    4    5 1 
     7    4   24 1 
     8    4   25 1 
     9    5    6 1 
    10    5    7 1 
    11    5   15 1 
    12    7    8 1 
    13    7   26 1 
    14    7   27 1 
    15    8    9 1 
    16    8   28 1 
    17    8   29 1 
    18    9   14 ar
    19    9   10 ar
    20   10   11 ar
    21   10   30 1 
    22   11   12 ar
    23   11   31 1 
    24   12   13 ar
    25   13   14 ar
    26   13   32 1 
    27   14   33 1 
    28   15   16 1 
    29   15   34 1 
    30   15   35 1 
    31   16   21 ar
    32   16   17 ar
    33   17   18 ar
    34   17   36 1 
    35   18   19 ar
    36   18   37 1 
    37   19   20 ar
    38   19   38 1 
    39   20   21 ar
    40   20   39 1 
    41   21   40 1 
##########                 Name:            E46167580
##########          Protonation:                   99
##########               SMILES:   c1cc(cnc1)O[C@@H]2C[C@@]3(CC[NH+](C3)CC4CCC4)OC2
##########            Long Name:   (5R,7R)-3-(cyclobutylmethyl)-7-(3-pyridyloxy)-9-oxa-3-azoniaspiro[4.4]nonane
##########          FlexRecCode: 1
##########               Number:                  163
##########   Ligand Source File: /raidb/db2/rgc/leads-emolecules-300/leads-emolecules-3-cp-0000029.db2.gz
##########           GlobalRank: 3616
##########                 Rank:                    1
##########               Setnum:                   91
##########             Matchnum:                 2642
##########                Cloud:                    1
##########        Electrostatic:           -21.424921
##########        Van der Waals:           -22.969326
##########  Ligand Polar Desolv:             6.193644
########## Ligand Apolar Desolv:            -2.135781
##########      Internal Energy:             0.000000
##########      Receptor Energy: 0.0
########## Receptor Desolvation:             0.000000
########## Receptor Hydrophobic:             0.000000
##########         Total Energy: -40.34
##########        Ligand Charge:             1.000000
##########            Arbitrary:    +999.9990
##########     heavy atom count:   21
##########           pose count:    1
##########        Ligand Energy:             0.000000
# num electro vdwattr vdwrepu polsolv apolsol rdesolv rhydroe totalscore fullpol fullapo
#   1   -0.03   -0.50    0.05    0.16   -0.08    0.00    0.00      -0.40    0.64   -0.31
#   2    1.50   -0.71    0.20   -0.61   -0.06    0.00    0.00       0.32   -2.30   -0.23
#   3    0.45   -0.36    0.01   -0.62   -0.07    0.00    0.00      -0.59   -2.87   -0.33
#   4    0.55   -0.47    0.02   -0.92   -0.10    0.00    0.00      -0.92   -3.18   -0.34
#   5    1.21   -0.65    0.07   -0.81   -0.10    0.00    0.00      -0.28   -2.75   -0.33
#   6    7.95   -1.10    0.37   -3.58    0.14    0.00    0.00       3.78  -11.17    0.45
#   7  -13.70   -0.08    0.01    4.79    0.17    0.00    0.00      -8.81   16.12    0.56
#   8    0.18   -1.23    0.39    0.00   -0.15    0.00    0.00      -0.82    0.00   -0.40
#   9    2.39   -1.04    0.17   -1.64   -0.11    0.00    0.00      -0.23   -3.68   -0.25
#  10   -0.98   -0.68    0.04    0.79   -0.02    0.00    0.00      -0.86    1.97   -0.06
#  11    0.89   -0.76    0.12   -1.17   -0.10    0.00    0.00      -1.02   -2.90   -0.25
#  12   -0.03   -1.05    0.17    0.13   -0.05    0.00    0.00      -0.84    0.30   -0.12
#  13   -0.06   -2.21    1.05    0.24   -0.06    0.00    0.00      -1.04    0.53   -0.14
#  14    2.29   -1.96    0.39   -3.13    0.60    0.00    0.00      -1.81   -7.34    1.41
#  15   -0.06   -1.37    0.22   -1.67    0.38    0.00    0.00      -2.49   -3.83    0.88
#  16    0.14   -1.76    0.44    0.42   -0.15    0.00    0.00      -0.92    0.84   -0.31
#  17    0.19   -2.63    0.78    0.05   -0.55    0.00    0.00      -2.15    0.08   -0.96
#  18   -2.47   -4.05    1.95   -1.24    1.31    0.00    0.00      -4.51   -1.92    2.03
#  19    0.19   -2.84    0.66   -0.01   -0.64    0.00    0.00      -2.64   -0.01   -0.98
#  20   -0.64   -1.87    0.33   -0.71   -0.29    0.00    0.00      -3.17   -1.18   -0.48
#  21   -0.79   -1.61    0.37   -0.94   -0.22    0.00    0.00      -3.20   -1.74   -0.41
#  22    0.37   -0.54    0.03   -0.11   -0.14    0.00    0.00      -0.38   -0.34   -0.45
#  23   -1.10   -0.10    0.00    0.42   -0.02    0.00    0.00      -0.80    4.68   -0.26
#  24   -1.03   -0.15    0.01    0.58   -0.04    0.00    0.00      -0.63    3.69   -0.27
#  25   -1.49   -0.81    1.85    1.02   -0.07    0.00    0.00       0.51    3.65   -0.24
#  26   -0.09   -0.08    0.00    0.18   -0.02    0.00    0.00      -0.01    2.39   -0.27
#  27   -0.10   -0.12    0.01    0.25   -0.04    0.00    0.00       0.01    1.98   -0.28
#  28   -0.16   -0.15    0.01    0.03   -0.05    0.00    0.00      -0.31    0.20   -0.28
#  29   -0.35   -0.18    0.01    0.17   -0.06    0.00    0.00      -0.41    0.77   -0.28
#  30   -1.13   -0.49    0.27    0.21   -0.08    0.00    0.00      -1.21    0.76   -0.28
#  31   -0.84   -0.19    0.02    0.29   -0.05    0.00    0.00      -0.76    1.62   -0.28
#  32   -2.97   -0.87    2.18    1.05   -0.08    0.00    0.00      -0.69    3.50   -0.26
#  33   -4.15   -0.72    0.59    2.18   -0.11    0.00    0.00      -2.21    5.74   -0.28
#  34   -1.93   -0.67    0.41    0.80   -0.11    0.00    0.00      -1.50    2.05   -0.28
#  35   -2.25   -0.27    0.02    1.41   -0.09    0.00    0.00      -1.18    4.15   -0.27
#  36   -0.63   -0.27    0.06    0.74   -0.07    0.00    0.00      -0.18    2.66   -0.26
#  37   -0.81   -0.29    0.12    0.64   -0.06    0.00    0.00      -0.40    2.90   -0.25
#  38    0.39   -0.49    0.22    0.53   -0.08    0.00    0.00       0.58    1.49   -0.22
#  39    0.04   -1.40    1.13    0.72   -0.15    0.00    0.00       0.33    1.31   -0.27
#  40   -0.51   -0.92    1.28    0.53   -0.10    0.00    0.00       0.28    1.55   -0.28
#  41   -0.09   -0.66    0.30    0.60   -0.13    0.00    0.00       0.03    1.27   -0.28
#  42   -0.29   -1.01    0.82    0.77   -0.18    0.00    0.00       0.12    1.20   -0.28
#  43    1.00   -0.46    0.17    0.94   -0.12    0.00    0.00       1.54    2.19   -0.28
#  44    1.03   -0.29    0.04    0.88   -0.06    0.00    0.00       1.60    2.77   -0.20
#  45   -2.14   -0.19    0.02    1.32   -0.05    0.00    0.00      -1.05    6.17   -0.25
#  46   -1.36   -0.13    0.01    0.52   -0.03    0.00    0.00      -1.00    4.13   -0.26
@<TRIPOS>MOLECULE
E46167580
   46    49     0     0     0
SMALL
USER_CHARGES


@<TRIPOS>ATOM
      1 C1         25.4034   20.9480   60.6535 C.3       1             0.0029
      2 C2         25.5537   22.0316   59.5838 C.3       1            -0.1472
      3 C3         26.7716   22.9454   59.7996 C.3       1            -0.1469
      4 C4         25.8736   24.1141   59.3608 C.3       1            -0.1419
      5 C5         24.6784   23.2708   59.8352 C.3       1            -0.1263
      6 N1         24.2176   20.1319   60.3605 N.4       1            -0.3866
      7 H1         24.1539   19.9684   59.3669 H         1             0.4269
      8 C6         23.0023   20.8334   60.8287 C.3       1            -0.0079
      9 C7         22.0705   19.7102   61.3527 C.3       1            -0.1361
     10 C8         23.0858   18.7328   61.9788 C.3       1             0.0892
     11 C9         22.5281   17.3061   61.9873 C.3       1            -0.1389
     12 C10        22.5913   16.8942   63.4807 C.3       1             0.0504
     13 C11        23.6476   17.8792   64.0457 C.3       1             0.0208
     14 O1         23.3936   19.1051   63.3213 O.3       1            -0.3406
     15 O2         23.0318   15.5418   63.6178 O.3       1            -0.2918
     16 C12        22.0736   14.5780   63.6208 C.ar      1             0.0645
     17 C13        22.4207   13.2408   63.7497 C.ar      1             0.0848
     18 N2         21.4948   12.3028   63.7531 N.ar      1            -0.4431
     19 C14        20.2133   12.5914   63.6355 C.ar      1             0.0716
     20 C15        19.7900   13.9004   63.5032 C.ar      1            -0.1291
     21 C16        20.7303   14.9185   63.5005 C.ar      1            -0.1643
     22 C17        24.3144   18.8412   61.0717 C.3       1            -0.0267
     23 H2         26.2898   20.3136   60.6549 H         1             0.1291
     24 H3         25.2899   21.4159   61.6314 H         1             0.1314
     25 H4         25.4744   21.6395   58.5699 H         1             0.1117
     26 H5         27.0922   23.0076   60.8394 H         1             0.0907
     27 H6         27.5945   22.7455   59.1130 H         1             0.0783
     28 H7         26.0248   25.0233   59.9427 H         1             0.0809
     29 H8         25.8829   24.2921   58.2855 H         1             0.0895
     30 H9         23.8112   23.3335   59.1777 H         1             0.0824
     31 H10        24.4267   23.4220   60.8850 H         1             0.0918
     32 H11        23.2504   21.5261   61.6328 H         1             0.1364
     33 H12        22.5290   21.3640   60.0025 H         1             0.1374
     34 H13        21.3816   20.0933   62.1055 H         1             0.1279
     35 H14        21.5283   19.2382   60.5333 H         1             0.1151
     36 H15        21.4982   17.2954   61.6303 H         1             0.1099
     37 H16        23.1512   16.6479   61.3818 H         1             0.1074
     38 H17        21.6258   17.0404   63.9651 H         1             0.1018
     39 H18        23.4990   18.0284   65.1151 H         1             0.1136
     40 H19        24.6557   17.5170   63.8445 H         1             0.0850
     41 H20        23.4605   12.9658   63.8479 H         1             0.1653
     42 H21        19.4849   11.7940   63.6425 H         1             0.1649
     43 H22        18.7386   14.1275   63.4071 H         1             0.1435
     44 H23        20.4278   15.9506   63.4030 H         1             0.1383
     45 H24        24.3174   18.0210   60.3538 H         1             0.1440
     46 H25        25.2231   18.8157   61.6731 H         1             0.1398
@<TRIPOS>BOND
     1    1    2 1 
     2    1    6 1 
     3    1   23 1 
     4    1   24 1 
     5    2    5 1 
     6    2    3 1 
     7    2   25 1 
     8    3    4 1 
     9    3   26 1 
    10    3   27 1 
    11    4    5 1 
    12    4   28 1 
    13    4   29 1 
    14    5   30 1 
    15    5   31 1 
    16    6    7 1 
    17    6   22 1 
    18    6    8 1 
    19    8    9 1 
    20    8   32 1 
    21    8   33 1 
    22    9   10 1 
    23    9   34 1 
    24    9   35 1 
    25   10   14 1 
    26   10   11 1 
    27   10   22 1 
    28   11   12 1 
    29   11   36 1 
    30   11   37 1 
    31   12   13 1 
    32   12   15 1 
    33   12   38 1 
    34   13   14 1 
    35   13   39 1 
    36   13   40 1 
    37   15   16 1 
    38   16   21 ar
    39   16   17 ar
    40   17   18 ar
    41   17   41 1 
    42   18   19 ar
    43   19   20 ar
    44   19   42 1 
    45   20   21 ar
    46   20   43 1 
    47   21   44 1 
    48   22   45 1 
    49   22   46 1 
##########                 Name:            E43156891
##########          Protonation:                   11
##########               SMILES:   c1cc(cnc1)CC(=O)N2CCC(CC2)c3[nH]cc[nH+]3
##########            Long Name:   1-[4-(1H-imidazol-3-ium-2-yl)-1-piperidyl]-2-(3-pyridyl)ethanone
##########          FlexRecCode: 1
##########               Number:                  310
##########   Ligand Source File: /raidb/db2/rgc/leads-emolecules-300/leads-emolecules-lt300-1f-0000023.db2.gz
##########           GlobalRank: 3616
##########                 Rank:                    1
##########               Setnum:                  243
##########             Matchnum:                 3697
##########                Cloud:                    1
##########        Electrostatic:           -26.580688
##########        Van der Waals:           -21.335423
##########  Ligand Polar Desolv:             9.755656
########## Ligand Apolar Desolv:            -2.175623
##########      Internal Energy:             0.000000
##########      Receptor Energy: 0.0
########## Receptor Desolvation:             0.000000
########## Receptor Hydrophobic:             0.000000
##########         Total Energy: -40.34
##########        Ligand Charge:             1.000000
##########            Arbitrary:    +999.9990
##########     heavy atom count:   20
##########           pose count:    1
##########        Ligand Energy:             0.000000
# num electro vdwattr vdwrepu polsolv apolsol rdesolv rhydroe totalscore fullpol fullapo
#   1   -3.15   -2.70    2.07   -1.15    0.17    0.00    0.00      -4.76   -2.49    0.37
#   2   -0.51   -1.44    0.22    2.41   -0.28    0.00    0.00       0.40    5.53   -0.64
#   3   -0.08   -1.18    0.26   -0.52   -0.08    0.00    0.00      -1.60   -1.19   -0.18
#   4   -0.36   -1.70    0.40   -0.43   -0.15    0.00    0.00      -2.25   -0.88   -0.30
#   5    0.21   -2.23    0.58    0.16   -0.52    0.00    0.00      -1.80    0.29   -0.95
#   6   -2.43   -3.54    1.35   -0.50    1.29    0.00    0.00      -3.83   -0.79    2.04
#   7    0.31   -2.86    0.65   -0.01   -0.64    0.00    0.00      -2.55   -0.01   -0.98
#   8   -0.80   -1.96    0.38   -0.55   -0.29    0.00    0.00      -3.23   -0.91   -0.48
#   9   -0.34   -1.59    0.29   -0.34   -0.25    0.00    0.00      -2.22   -0.62   -0.46
#  10    5.07   -1.03    0.07   -4.12    0.82    0.00    0.00       0.82   -9.82    1.96
#  11   -0.99   -0.56    0.03    0.60   -0.16    0.00    0.00      -1.08    1.82   -0.48
#  12    1.69   -0.58    0.04   -1.07   -0.06    0.00    0.00       0.01   -3.56   -0.21
#  13    0.87   -0.90    0.21   -0.14   -0.06    0.00    0.00      -0.02   -0.39   -0.17
#  14    2.91   -1.04    0.16   -1.10   -0.10    0.00    0.00       0.82   -2.48   -0.23
#  15   -1.64   -0.88    0.09    0.70   -0.22    0.00    0.00      -1.95    1.52   -0.48
#  16   -6.54   -1.59    0.54    2.82   -0.62    0.00    0.00      -5.40    8.67   -1.92
#  17    8.01   -1.78    0.89   -4.39    0.35    0.00    0.00       3.08  -13.62    1.09
#  18   -9.38   -0.11    0.04    4.11    0.16    0.00    0.00      -5.20   14.00    0.54
#  19   -0.18   -1.01    0.13    0.02   -0.30    0.00    0.00      -1.35    0.07   -1.03
#  20   -0.15   -1.18    0.21    0.06   -0.32    0.00    0.00      -1.38    0.19   -1.03
#  21    8.24   -3.36    6.58   -4.51    0.38    0.00    0.00       7.32  -13.64    1.14
#  22   -0.20   -0.25    0.03    0.70   -0.07    0.00    0.00       0.21    2.71   -0.27
#  23    0.36   -0.85    0.76    1.38   -0.12    0.00    0.00       1.53    3.15   -0.27
#  24   -0.09   -0.47    0.14    0.64   -0.12    0.00    0.00       0.11    1.53   -0.28
#  25   -0.17   -1.01    0.67    0.42   -0.18    0.00    0.00      -0.28    0.64   -0.28
#  26    0.88   -0.59    0.44    0.54   -0.13    0.00    0.00       1.14    1.19   -0.28
#  27    1.32   -0.30    0.04    0.57   -0.09    0.00    0.00       1.53    1.70   -0.28
#  28   -0.70   -0.26    0.05    0.56   -0.04    0.00    0.00      -0.39    2.69   -0.21
#  29   -0.83   -0.15    0.01    0.40   -0.05    0.00    0.00      -0.62    2.45   -0.28
#  30   -0.80   -0.31    0.05    0.63   -0.07    0.00    0.00      -0.50    2.51   -0.26
#  31   -0.92   -0.12    0.01    0.49   -0.03    0.00    0.00      -0.58    3.97   -0.28
#  32   -3.61   -0.57    0.58    1.40   -0.08    0.00    0.00      -2.28    4.79   -0.28
#  33   -1.67   -0.46    0.18    0.45   -0.10    0.00    0.00      -1.60    1.30   -0.28
#  34   -2.65   -0.67    0.60    1.03   -0.11    0.00    0.00      -1.81    2.55   -0.28
#  35   -1.43   -0.43    0.13    0.68   -0.11    0.00    0.00      -1.15    1.75   -0.28
#  36   -1.21   -0.30    0.05   -0.02   -0.09    0.00    0.00      -1.57   -0.05   -0.24
#  37   -1.32   -0.15    0.01    1.13   -0.04    0.00    0.00      -0.37    7.29   -0.28
#  38   -1.14   -0.18    0.01    1.59   -0.06    0.00    0.00       0.22    7.45   -0.28
#  39  -13.13   -0.33    0.41    5.10    0.20    0.00    0.00      -7.74   14.73    0.59
@<TRIPOS>MOLECULE
E43156891
   39    41     0     0     0
SMALL
USER_CHARGES


@<TRIPOS>ATOM
      1 O1         20.8565   17.5934   63.3166 O.2       1            -0.5127
      2 C1         21.9662   17.2323   62.9862 C.2       1             0.5184
      3 C2         22.6562   16.1282   63.7451 C.3       1            -0.0940
      4 C3         21.8270   14.8721   63.6691 C.ar      1            -0.1330
      5 C4         22.4327   13.6302   63.7075 C.ar      1             0.1146
      6 N1         21.7138   12.5269   63.6420 N.ar      1            -0.4825
      7 C5         20.3995   12.5606   63.5382 C.ar      1             0.1052
      8 C6         19.7246   13.7657   63.4940 C.ar      1            -0.1680
      9 C7         20.4466   14.9474   63.5658 C.ar      1            -0.0595
     10 N2         22.5801   17.8146   61.9372 N.am      1            -0.6250
     11 C8         24.0452   17.9124   61.8871 C.3       1             0.1077
     12 C9         24.4338   19.3756   61.6520 C.3       1            -0.1406
     13 C10        23.7261   19.8920   60.3972 C.3       1            -0.0402
     14 C11        22.2106   19.8212   60.5986 C.3       1            -0.1317
     15 C12        21.7970   18.3582   60.8191 C.3       1             0.1116
     16 C13        24.1326   21.3208   60.1436 C.cat     1             0.3217
     17 N3         23.9433   22.3341   60.9733 N.pl3     1            -0.4851
     18 H1         23.5203   22.2839   61.8447 H         1             0.4638
     19 C14        24.4399   23.4492   60.3983 C.2       1             0.0182
     20 C15        24.9376   23.0945   59.1971 C.2       1             0.0187
     21 N4         24.7426   21.7666   59.0571 N.pl3     1            -0.4853
     22 H2         23.6367   15.9432   63.3061 H         1             0.1086
     23 H3         22.7747   16.4228   64.7878 H         1             0.1071
     24 H4         23.5074   13.5629   63.7917 H         1             0.1492
     25 H5         19.8443   11.6357   63.4867 H         1             0.1597
     26 H6         18.6482   13.7868   63.4090 H         1             0.1393
     27 H7         19.9456   15.9039   63.5381 H         1             0.1325
     28 H8         24.4668   17.5697   62.8319 H         1             0.1043
     29 H9         24.4247   17.2980   61.0708 H         1             0.0848
     30 H10        24.1333   19.9744   62.5117 H         1             0.0796
     31 H11        25.5129   19.4481   61.5169 H         1             0.0969
     32 H12        24.0079   19.2772   59.5424 H         1             0.1312
     33 H13        21.9309   20.4158   61.4682 H         1             0.0823
     34 H14        21.7075   20.2108   59.7137 H         1             0.0914
     35 H15        21.9970   17.7791   59.9175 H         1             0.0797
     36 H16        20.7349   18.3094   61.0591 H         1             0.1090
     37 H17        24.4383   24.4425   60.8222 H         1             0.2283
     38 H18        25.4087   23.7509   58.4806 H         1             0.2285
     39 H19        25.0026   21.2314   58.2911 H         1             0.4655
@<TRIPOS>BOND
     1    1    2 2 
     2    2    3 1 
     3    2   10 am
     4    3    4 1 
     5    3   22 1 
     6    3   23 1 
     7    4    9 ar
     8    4    5 ar
     9    5    6 ar
    10    5   24 1 
    11    6    7 ar
    12    7    8 ar
    13    7   25 1 
    14    8    9 ar
    15    8   26 1 
    16    9   27 1 
    17   10   15 1 
    18   10   11 1 
    19   11   12 1 
    20   11   28 1 
    21   11   29 1 
    22   12   13 1 
    23   12   30 1 
    24   12   31 1 
    25   13   14 1 
    26   13   16 1 
    27   13   32 1 
    28   14   15 1 
    29   14   33 1 
    30   14   34 1 
    31   15   35 1 
    32   15   36 1 
    33   16   21 1 
    34   16   17 2 
    35   17   18 1 
    36   17   19 1 
    37   19   20 2 
    38   19   37 1 
    39   20   21 1 
    40   20   38 1 
    41   21   39 1 
##########                 Name:            E46178394
##########          Protonation:                   99
##########               SMILES:   c1cc(cnc1)CN2CC[C@H]3C[NH+](C[C@H]3C2=O)CCO
##########            Long Name:   -pyridylmethyl)-2,3,3a,6,7,7a-hexahydro-1H-pyrrolo[3,4-c]pyridin-2-ium-4-one
##########          FlexRecCode: 1
##########               Number:                  100
##########   Ligand Source File: /raidb/db2/rgc/leads-emolecules-300/leads-lt300-emolecules-1h-0000052.db2.gz
##########           GlobalRank: 3644
##########                 Rank:                    1
##########               Setnum:                  281
##########             Matchnum:                 1984
##########                Cloud:                    1
##########        Electrostatic:           -31.744623
##########        Van der Waals:           -17.930870
##########  Ligand Polar Desolv:            10.698283
########## Ligand Apolar Desolv:            -1.346714
##########      Internal Energy:             0.000000
##########      Receptor Energy: 0.0
########## Receptor Desolvation:             0.000000
########## Receptor Hydrophobic:             0.000000
##########         Total Energy: -40.32
##########        Ligand Charge:             1.000000
##########            Arbitrary:    +999.9990
##########     heavy atom count:   20
##########           pose count:    1
##########        Ligand Energy:             0.000000
# num electro vdwattr vdwrepu polsolv apolsol rdesolv rhydroe totalscore fullpol fullapo
#   1    7.79   -3.52    7.66   -4.39    0.54    0.00    0.00       8.07  -13.79    1.69
#   2   -0.45   -0.57    0.13    0.19   -0.03    0.00    0.00      -0.73    0.86   -0.14
#   3    0.05   -0.67    0.14    0.09   -0.10    0.00    0.00      -0.48    0.34   -0.35
#   4    9.44   -1.83    1.88   -3.62    0.15    0.00    0.00       6.03  -10.80    0.45
#   5  -17.09   -0.21    0.13    5.16    0.18    0.00    0.00     -11.82   14.81    0.52
#   6    0.47   -1.25    0.35   -0.06   -0.18    0.00    0.00      -0.66   -0.15   -0.42
#   7    1.59   -0.76    0.05   -1.00   -0.10    0.00    0.00      -0.22   -2.28   -0.22
#   8    1.30   -1.03    0.14   -1.26   -0.10    0.00    0.00      -0.96   -3.00   -0.24
#   9   -0.14   -1.20    0.28    0.78   -0.20    0.00    0.00      -0.48    1.73   -0.44
#  10    1.51   -1.21    0.13   -4.29    0.75    0.00    0.00      -3.12  -10.66    1.86
#  11    0.13   -1.33    0.41    1.04   -0.18    0.00    0.00       0.07    2.36   -0.41
#  12   -0.46   -1.79    0.41   -0.74   -0.19    0.00    0.00      -2.76   -1.45   -0.38
#  13    0.31   -2.58    0.71    0.48   -0.55    0.00    0.00      -1.63    0.82   -0.94
#  14   -2.45   -3.75    1.49   -1.79    1.33    0.00    0.00      -5.16   -2.75    2.05
#  15    0.30   -2.76    0.64    0.14   -0.64    0.00    0.00      -2.33    0.21   -0.98
#  16   -0.93   -1.85    0.33   -0.75   -0.29    0.00    0.00      -3.49   -1.26   -0.48
#  17   -0.27   -1.61    0.31   -0.34   -0.25    0.00    0.00      -2.15   -0.63   -0.46
#  18   -3.29   -1.44    0.68    2.96   -0.19    0.00    0.00      -1.28    8.77   -0.55
#  19    2.90   -1.68    0.95   -2.89    0.13    0.00    0.00      -0.59   -7.68    0.34
#  20    1.48   -0.98    0.29   -0.92   -0.08    0.00    0.00      -0.22   -2.53   -0.22
#  21    0.04   -0.62    0.06    0.12   -0.12    0.00    0.00      -0.52    0.39   -0.40
#  22  -14.05   -0.43    0.66    3.59    0.47    0.00    0.00      -9.77    9.56    1.24
#  23   -0.54   -0.10    0.01    0.20   -0.02    0.00    0.00      -0.46    1.96   -0.23
#  24   -0.43   -0.08    0.00    0.11   -0.02    0.00    0.00      -0.42    1.43   -0.28
#  25   -1.47   -0.15    0.01    0.63   -0.04    0.00    0.00      -1.03    3.95   -0.28
#  26   -2.38   -0.21    0.03    1.06   -0.06    0.00    0.00      -1.57    4.81   -0.28
#  27   -3.43   -0.36    0.08    1.45   -0.06    0.00    0.00      -2.32    4.25   -0.17
#  28   -4.73   -0.89    1.04    3.01   -0.12    0.00    0.00      -1.69    6.75   -0.28
#  29   -1.82   -0.26    0.02    1.56   -0.09    0.00    0.00      -0.60    4.61   -0.28
#  30   -1.05   -0.28    0.03    0.94   -0.08    0.00    0.00      -0.45    3.31   -0.28
#  31   -1.15   -0.69    0.36    0.22   -0.11    0.00    0.00      -1.37    0.55   -0.28
#  32    0.04   -0.76    0.59    1.81   -0.10    0.00    0.00       1.59    3.80   -0.22
#  33    0.43   -0.45    0.22    0.44   -0.09    0.00    0.00       0.55    1.32   -0.27
#  34   -0.09   -0.34    0.08    0.30   -0.07    0.00    0.00      -0.13    1.00   -0.24
#  35    0.34   -0.99    1.16    1.13   -0.12    0.00    0.00       1.53    2.58   -0.27
#  36    0.04   -0.67    0.29    1.25   -0.14    0.00    0.00       0.78    2.58   -0.28
#  37   -0.14   -0.97    0.69    0.65   -0.18    0.00    0.00       0.06    1.02   -0.28
#  38    1.06   -0.45    0.17    0.50   -0.11    0.00    0.00       1.16    1.22   -0.28
#  39    1.18   -0.32    0.05    0.33   -0.08    0.00    0.00       1.16    1.00   -0.26
#  40   -2.52   -0.86    1.62    1.15   -0.11    0.00    0.00      -0.71    2.90   -0.28
#  41   -1.80   -0.20    0.02    1.14   -0.06    0.00    0.00      -0.90    5.40   -0.28
#  42   -1.46   -0.13    0.01    0.33   -0.02    0.00    0.00      -1.28    2.80   -0.20
@<TRIPOS>MOLECULE
E46178394
   42    44     0     0     0
SMALL
USER_CHARGES


@<TRIPOS>ATOM
      1 O1         26.2397   20.9740   58.4496 O.3       1            -0.5802
      2 C1         26.3344   20.8028   59.8652 C.3       1             0.0455
      3 C2         24.9290   20.7498   60.4676 C.3       1            -0.0032
      4 N1         24.1894   19.6215   59.8863 N.4       1            -0.3876
      5 H1         24.3921   19.5523   58.9003 H         1             0.4368
      6 C3         22.7466   19.8199   60.0833 C.3       1            -0.0186
      7 C4         22.2699   18.6574   60.9585 C.3       1            -0.1027
      8 C5         22.3984   19.0253   62.4400 C.3       1            -0.1317
      9 C6         22.0554   17.8120   63.3032 C.3       1             0.0951
     10 N2         22.8466   16.6571   62.8966 N.am      1            -0.5913
     11 C7         23.0638   15.5885   63.8750 C.3       1             0.1537
     12 C8         21.9577   14.5713   63.7618 C.ar      1            -0.1745
     13 C9         22.2467   13.2196   63.7664 C.ar      1             0.1128
     14 N3         21.2842   12.3238   63.6682 N.ar      1            -0.4833
     15 C10        20.0176   12.6755   63.5625 C.ar      1             0.1110
     16 C11        19.6527   14.0083   63.5511 C.ar      1            -0.1731
     17 C12        20.6368   14.9793   63.6576 C.ar      1            -0.0499
     18 C13        23.3834   16.5188   61.6831 C.2       1             0.5065
     19 O2         23.9957   15.5003   61.4408 O.2       1            -0.5285
     20 C14        23.2719   17.5508   60.6029 C.3       1            -0.1109
     21 C15        24.5780   18.3679   60.5646 C.3       1            -0.0031
     22 H2         25.7625   20.2640   57.9986 H         1             0.4101
     23 H3         26.8592   19.8729   60.0844 H         1             0.0725
     24 H4         26.8832   21.6401   60.2963 H         1             0.0958
     25 H5         25.0012   20.6191   61.5473 H         1             0.1379
     26 H6         24.4044   21.6797   60.2483 H         1             0.1400
     27 H7         22.5641   20.7686   60.5882 H         1             0.1360
     28 H8         22.2310   19.8023   59.1230 H         1             0.1458
     29 H9         21.2519   18.3637   60.7025 H         1             0.1252
     30 H10        23.4208   19.3406   62.6477 H         1             0.1071
     31 H11        21.7129   19.8405   62.6717 H         1             0.0958
     32 H12        22.2647   18.0424   64.3478 H         1             0.0766
     33 H13        20.9961   17.5797   63.1937 H         1             0.0991
     34 H14        24.0218   15.1067   63.6799 H         1             0.1029
     35 H15        23.0674   16.0110   64.8797 H         1             0.0975
     36 H16        23.2728   12.8936   63.8510 H         1             0.1520
     37 H17        19.2567   11.9130   63.4838 H         1             0.1607
     38 H18        18.6137   14.2899   63.4642 H         1             0.1394
     39 H19        20.3808   16.0285   63.6559 H         1             0.1393
     40 H20        23.0396   17.0955   59.6402 H         1             0.1562
     41 H21        25.3423   17.8435   59.9910 H         1             0.1455
     42 H22        24.9306   18.5731   61.5753 H         1             0.1418
@<TRIPOS>BOND
     1    1    2 1 
     2    1   22 1 
     3    2    3 1 
     4    2   23 1 
     5    2   24 1 
     6    3    4 1 
     7    3   25 1 
     8    3   26 1 
     9    4    5 1 
    10    4   21 1 
    11    4    6 1 
    12    6    7 1 
    13    6   27 1 
    14    6   28 1 
    15    7   20 1 
    16    7    8 1 
    17    7   29 1 
    18    8    9 1 
    19    8   30 1 
    20    8   31 1 
    21    9   10 1 
    22    9   32 1 
    23    9   33 1 
    24   10   11 1 
    25   10   18 am
    26   11   12 1 
    27   11   34 1 
    28   11   35 1 
    29   12   17 ar
    30   12   13 ar
    31   13   14 ar
    32   13   36 1 
    33   14   15 ar
    34   15   16 ar
    35   15   37 1 
    36   16   17 ar
    37   16   38 1 
    38   17   39 1 
    39   18   19 2 
    40   18   20 1 
    41   20   21 1 
    42   20   40 1 
    43   21   41 1 
    44   21   42 1 
##########                 Name:            E17367761
##########          Protonation:                   81
##########               SMILES:   CCOc1cc(ccc1O)CN2CCC[NH+](CC2)C
##########            Long Name:   2-ethoxy-4-[(4-methyl-1,4-diazepan-4-ium-1-yl)methyl]phenol
##########          FlexRecCode: 1
##########               Number:                  334
##########   Ligand Source File: /raidb/db2/rgc/leads-emolecules-300/leads-lt300-emolecules-1d-0000054.db2.gz
##########           GlobalRank: 3662
##########                 Rank:                    1
##########               Setnum:                  139
##########             Matchnum:                  954
##########                Cloud:                    1
##########        Electrostatic:           -22.262865
##########        Van der Waals:           -25.439825
##########  Ligand Polar Desolv:             8.461726
########## Ligand Apolar Desolv:            -1.064967
##########      Internal Energy:             0.000000
##########      Receptor Energy: 0.0
########## Receptor Desolvation:             0.000000
########## Receptor Hydrophobic:             0.000000
##########         Total Energy: -40.31
##########        Ligand Charge:             1.000000
##########            Arbitrary:    +999.9990
##########     heavy atom count:   19
##########           pose count:    1
##########        Ligand Energy:             0.000000
# num electro vdwattr vdwrepu polsolv apolsol rdesolv rhydroe totalscore fullpol fullapo
#   1   -2.45   -1.46    0.28   -0.75   -0.13    0.00    0.00      -4.49   -1.25   -0.21
#   2    0.50   -1.35    0.30    0.24   -0.07    0.00    0.00      -0.37    0.41   -0.11
#   3   -1.97   -1.63    0.32   -1.00    0.35    0.00    0.00      -3.91   -1.69    0.60
#   4    0.53   -1.65    0.29    0.15   -0.18    0.00    0.00      -0.86    0.25   -0.31
#   5   -0.98   -1.70    0.41   -0.89   -0.15    0.00    0.00      -3.30   -1.94   -0.32
#   6   -0.09   -1.68    0.36   -0.19   -0.15    0.00    0.00      -1.75   -0.43   -0.35
#   7   -0.14   -1.22    0.23    0.80   -0.16    0.00    0.00      -0.49    1.84   -0.37
#   8    3.81   -1.00    0.07   -4.41    1.17    0.00    0.00      -0.36  -11.46    3.05
#   9   -0.18   -0.59    0.05    0.16   -0.11    0.00    0.00      -0.67    0.51   -0.37
#  10    1.77   -0.91    0.20   -1.13   -0.08    0.00    0.00      -0.14   -3.28   -0.24
#  11    0.24   -0.85    0.25    0.07   -0.12    0.00    0.00      -0.40    0.23   -0.40
#  12    9.25   -1.84    1.97   -3.66    0.12    0.00    0.00       5.84  -10.99    0.35
#  13  -17.35   -0.18    0.10    4.94    0.18    0.00    0.00     -12.32   13.33    0.48
#  14    0.83   -0.78    0.23   -0.42   -0.13    0.00    0.00      -0.26   -1.46   -0.46
#  15   -0.09   -0.79    0.08    0.27   -0.16    0.00    0.00      -0.69    0.67   -0.40
#  16   -0.30   -0.81    0.08    0.14   -0.15    0.00    0.00      -1.04    0.37   -0.38
#  17   -0.01   -1.91    0.57   -0.65   -0.21    0.00    0.00      -2.21   -1.39   -0.46
#  18   -0.11   -2.52    0.79   -0.60   -0.25    0.00    0.00      -2.70   -1.11   -0.46
#  19    0.30   -2.22    0.45   -0.07   -0.19    0.00    0.00      -1.74   -0.12   -0.31
#  20   -2.00   -3.67    1.53   -1.18    0.54    0.00    0.00      -4.77   -1.75    0.81
#  21    1.30   -0.47    0.13    0.13   -0.13    0.00    0.00       0.95    0.28   -0.28
#  22    1.78   -0.63    0.48    0.60   -0.13    0.00    0.00       2.09    1.24   -0.28
#  23    0.88   -0.60    0.25    0.11   -0.14    0.00    0.00       0.50    0.22   -0.28
#  24    0.61   -0.48    0.20    0.35   -0.12    0.00    0.00       0.56    0.81   -0.27
#  25    0.31   -0.63    0.35    0.50   -0.12    0.00    0.00       0.41    1.10   -0.27
#  26    1.28   -0.39    0.11    0.69   -0.06    0.00    0.00       1.63    2.03   -0.19
#  27    0.04   -0.60    0.30    1.03   -0.12    0.00    0.00       0.65    2.33   -0.27
#  28   -0.11   -0.68    0.38    0.32   -0.11    0.00    0.00      -0.19    0.83   -0.28
#  29   -0.41   -0.18    0.02    0.17   -0.04    0.00    0.00      -0.43    1.13   -0.26
#  30   -0.58   -0.21    0.04    0.11   -0.03    0.00    0.00      -0.68    0.56   -0.17
#  31   -1.08   -0.34    0.08    0.61   -0.09    0.00    0.00      -0.81    1.99   -0.28
#  32   -1.59   -0.47    0.26    0.70   -0.09    0.00    0.00      -1.19    2.02   -0.26
#  33   -1.26   -0.11    0.00    0.40   -0.02    0.00    0.00      -0.99    3.84   -0.23
#  34   -2.26   -0.46    0.28    1.27   -0.07    0.00    0.00      -1.23    4.86   -0.26
#  35   -2.22   -0.25    0.03    0.97   -0.07    0.00    0.00      -1.53    3.90   -0.27
#  36   -1.24   -0.13    0.01    0.58   -0.04    0.00    0.00      -0.83    4.07   -0.28
#  37   -1.63   -0.26    0.11    0.71   -0.05    0.00    0.00      -1.11    4.02   -0.28
#  38   -2.96   -0.34    0.07    1.61   -0.09    0.00    0.00      -1.71    5.09   -0.27
#  39   -2.67   -0.24    0.02    1.30   -0.08    0.00    0.00      -1.68    4.51   -0.28
#  40   -1.13   -0.46    0.12    0.91   -0.09    0.00    0.00      -0.65    2.45   -0.25
#  41   -0.61   -0.26    0.03    0.40   -0.05    0.00    0.00      -0.49    1.68   -0.21
#  42   -0.17   -0.35    0.08    0.87   -0.09    0.00    0.00       0.34    2.86   -0.28
#  43   -0.17   -0.96    0.95    0.63   -0.14    0.00    0.00       0.31    1.27   -0.28
#  44    0.03   -0.06    0.00    1.66    0.76    0.00    0.00       2.40    2.64    1.21
@<TRIPOS>MOLECULE
E17367761
   44    45     0     0     0
SMALL
USER_CHARGES


@<TRIPOS>ATOM
      1 C1         17.4143   15.7388   64.2332 C.3       1            -0.1558
      2 C2         18.4274   14.7101   64.7395 C.3       1             0.0550
      3 O1         19.1520   14.1704   63.6325 O.3       1            -0.3029
      4 C3         20.5009   14.3437   63.6339 C.ar      1             0.1103
      5 C4         21.0366   15.6216   63.6443 C.ar      1            -0.1938
      6 C5         22.4080   15.7961   63.6462 C.ar      1            -0.0630
      7 C6         22.9889   17.1866   63.6575 C.3       1             0.0993
      8 N1         23.1782   17.6495   62.2763 N.3       1            -0.5403
      9 C7         24.2848   17.0136   61.6775 C.3       1             0.0231
     10 C8         24.4898   17.4286   60.2114 C.3       1            -0.1375
     11 C9         25.1758   18.7504   60.0163 C.3       1            -0.0151
     12 N2         24.1924   19.8661   59.9033 N.4       1            -0.3763
     13 H1         23.8442   19.9049   58.9571 H         1             0.4285
     14 C10        24.8643   21.1333   60.2206 C.3       1            -0.0507
     15 C11        23.0471   19.6728   60.8372 C.3       1             0.0045
     16 C12        23.2829   19.1340   62.2207 C.3       1             0.0270
     17 C13        23.2477   14.6978   63.6382 C.ar      1            -0.1191
     18 C14        22.7197   13.4203   63.6273 C.ar      1            -0.1051
     19 C15        21.3460   13.2383   63.6307 C.ar      1             0.0851
     20 O2         20.8250   11.9822   63.6261 O.3       1            -0.4861
     21 H2         16.8617   16.1506   65.0777 H         1             0.0693
     22 H3         17.9396   16.5420   63.7163 H         1             0.0816
     23 H4         16.7201   15.2568   63.5448 H         1             0.0701
     24 H5         19.1216   15.1922   65.4278 H         1             0.0621
     25 H6         17.9022   13.9069   65.2564 H         1             0.0580
     26 H7         20.3829   16.4812   63.6506 H         1             0.1294
     27 H8         22.3077   17.8608   64.1767 H         1             0.0968
     28 H9         23.9500   17.1746   64.1717 H         1             0.0570
     29 H10        25.1825   17.2646   62.2426 H         1             0.0564
     30 H11        24.1353   15.9347   61.7197 H         1             0.1024
     31 H12        25.0822   16.6587   59.7168 H         1             0.1134
     32 H13        23.5139   17.4743   59.7283 H         1             0.0927
     33 H14        25.8328   18.9392   60.8653 H         1             0.1255
     34 H15        25.7747   18.7100   59.1065 H         1             0.1331
     35 H16        24.1506   21.9531   60.1398 H         1             0.1237
     36 H17        25.2567   21.0919   61.2367 H         1             0.1230
     37 H18        25.6843   21.2949   59.5208 H         1             0.1206
     38 H19        22.5516   20.6376   60.9457 H         1             0.1283
     39 H20        22.3384   19.0059   60.3466 H         1             0.1300
     40 H21        22.5452   19.5652   62.8976 H         1             0.1111
     41 H22        24.2791   19.4300   62.5495 H         1             0.0659
     42 H23        24.3186   14.8383   63.6400 H         1             0.1293
     43 H24        23.3778   12.5640   63.6206 H         1             0.1399
     44 H25        19.8584   11.9573   63.6254 H         1             0.3933
@<TRIPOS>BOND
     1    1    2 1 
     2    1   21 1 
     3    1   22 1 
     4    1   23 1 
     5    2    3 1 
     6    2   24 1 
     7    2   25 1 
     8    3    4 1 
     9    4   19 ar
    10    4    5 ar
    11    5    6 ar
    12    5   26 1 
    13    6    7 1 
    14    6   17 ar
    15    7    8 1 
    16    7   27 1 
    17    7   28 1 
    18    8   16 1 
    19    8    9 1 
    20    9   10 1 
    21    9   29 1 
    22    9   30 1 
    23   10   11 1 
    24   10   31 1 
    25   10   32 1 
    26   11   12 1 
    27   11   33 1 
    28   11   34 1 
    29   12   13 1 
    30   12   14 1 
    31   12   15 1 
    32   14   35 1 
    33   14   36 1 
    34   14   37 1 
    35   15   16 1 
    36   15   38 1 
    37   15   39 1 
    38   16   40 1 
    39   16   41 1 
    40   17   18 ar
    41   17   42 1 
    42   18   19 ar
    43   18   43 1 
    44   19   20 1 
    45   20   44 1 
##########                 Name:            E32100351
##########          Protonation:                  100
##########               SMILES:   c1ccc2cc(ccc2c1)NCc3cn4ccccc4c3C#N
##########            Long Name:   2-[(2-naphthylamino)methyl]indolizine-1-carbonitrile
##########          FlexRecCode: 1
##########               Number:                  100
##########   Ligand Source File: /raidb/db2/rgc/leads-emolecules-300/leads-emolecules-lt300-2i-0000057.db2.gz
##########           GlobalRank: 3696
##########                 Rank:                    1
##########               Setnum:                   25
##########             Matchnum:                  809
##########                Cloud:                    1
##########        Electrostatic:            -6.322226
##########        Van der Waals:           -33.485256
##########  Ligand Polar Desolv:             5.064687
########## Ligand Apolar Desolv:            -5.544717
##########      Internal Energy:             0.000000
##########      Receptor Energy: 0.0
########## Receptor Desolvation:             0.000000
########## Receptor Hydrophobic:             0.000000
##########         Total Energy: -40.29
##########        Ligand Charge:             0.000000
##########            Arbitrary:    +999.9990
##########     heavy atom count:   23
##########           pose count:    1
##########        Ligand Energy:             0.000000
# num electro vdwattr vdwrepu polsolv apolsol rdesolv rhydroe totalscore fullpol fullapo
#   1   -2.65   -5.18    3.86    3.39    0.46    0.00    0.00      -0.13    5.26    0.71
#   2    0.99   -2.59    0.72   -1.27   -0.89    0.00    0.00      -3.03   -2.13   -1.49
#   3   -0.12   -1.84    0.66    0.23   -0.20    0.00    0.00      -1.27    0.48   -0.42
#   4   -0.28   -1.58    0.41   -0.02   -0.31    0.00    0.00      -1.77   -0.05   -0.72
#   5    0.43   -1.73    0.51   -0.04   -0.20    0.00    0.00      -1.03   -0.10   -0.47
#   6    0.35   -1.00    0.08   -0.11   -0.18    0.00    0.00      -0.85   -0.29   -0.48
#   7    0.68   -0.77    0.05   -0.30   -0.14    0.00    0.00      -0.49   -1.01   -0.47
#   8   -0.39   -0.90    0.08    0.13   -0.28    0.00    0.00      -1.36    0.41   -0.93
#   9    1.42   -1.27    0.32   -0.39    0.31    0.00    0.00       0.40   -1.08    0.87
#  10    0.07   -1.55    0.78   -0.02   -0.39    0.00    0.00      -1.11   -0.04   -0.97
#  11   -0.17   -1.81    1.12   -0.03   -0.17    0.00    0.00      -1.06   -0.06   -0.39
#  12    1.48   -1.08    0.18    0.07   -0.19    0.00    0.00       0.47    0.15   -0.39
#  13   -6.44   -2.13    0.79    0.47    0.92    0.00    0.00      -6.39    0.88    1.71
#  14    2.28   -2.08    0.39   -0.42   -0.42    0.00    0.00      -0.25   -0.70   -0.71
#  15   -2.88   -2.22    0.54    0.70   -0.27    0.00    0.00      -4.13    1.16   -0.45
#  16    0.01   -2.72    1.28    0.11   -0.25    0.00    0.00      -1.56    0.18   -0.40
#  17   -1.50   -3.32    1.80    0.42   -0.27    0.00    0.00      -2.87    0.71   -0.46
#  18   -1.09   -2.65    1.12    0.22   -0.29    0.00    0.00      -2.68    0.36   -0.47
#  19   -1.39   -2.31    0.65    0.28   -0.31    0.00    0.00      -3.07    0.43   -0.47
#  20   -0.69   -3.03    0.94    0.19   -0.30    0.00    0.00      -2.89    0.29   -0.46
#  21   -0.84   -2.85    0.92    0.41   -0.26    0.00    0.00      -2.61    0.64   -0.40
#  22   -0.20   -3.62    1.10    0.11   -0.31    0.00    0.00      -2.93    0.16   -0.46
#  23   -1.03   -3.30    1.22    0.24   -0.27    0.00    0.00      -3.14    0.38   -0.43
#  24   -0.88   -0.63    0.62   -0.04   -0.10    0.00    0.00      -1.03   -0.10   -0.28
#  25   -0.35   -0.16    0.01    0.19   -0.05    0.00    0.00      -0.35    1.13   -0.28
#  26   -0.65   -0.10    0.00    0.19   -0.03    0.00    0.00      -0.59    2.11   -0.28
#  27   -1.68   -0.13    0.00    0.33   -0.04    0.00    0.00      -1.52    2.57   -0.28
#  28   -0.90   -0.22    0.02    0.47   -0.07    0.00    0.00      -0.70    1.99   -0.28
#  29    1.14   -0.49    0.32    0.17   -0.10    0.00    0.00       1.03    0.44   -0.27
#  30    0.44   -0.41    0.12   -0.03   -0.11    0.00    0.00       0.01   -0.07   -0.27
#  31    2.89   -0.05    0.00   -0.20    0.23    0.00    0.00       2.87   -0.50    0.56
#  32    1.76   -0.46    0.09   -0.23   -0.13    0.00    0.00       1.02   -0.49   -0.28
#  33    0.86   -1.10    1.16   -0.24   -0.16    0.00    0.00       0.52   -0.41   -0.28
#  34    1.04   -0.58    0.17   -0.05   -0.14    0.00    0.00       0.44   -0.09   -0.28
#  35    1.05   -0.46    0.11    0.00   -0.14    0.00    0.00       0.55   -0.01   -0.28
#  36    0.51   -0.95    0.54    0.00   -0.17    0.00    0.00      -0.07    0.00   -0.28
#  37   -0.30   -1.13    0.47    0.07   -0.18    0.00    0.00      -1.07    0.11   -0.28
#  38    0.69   -1.43    3.17    0.06   -0.14    0.00    0.00       2.35    0.10   -0.23
@<TRIPOS>MOLECULE
E32100351
   38    41     0     0     0
SMALL
USER_CHARGES


@<TRIPOS>ATOM
      1 N1         21.7283   12.2245   64.4897 N.1       1            -0.4275
      2 C1         22.0058   13.1963   63.9712 C.1       1             0.2850
      3 C2         22.3556   14.4215   63.3173 C.2       1            -0.1260
      4 C3         23.6313   14.7990   62.8641 C.2       1             0.1113
      5 C4         24.8770   14.1544   62.9009 C.2       1            -0.0997
      6 C5         25.9674   14.7785   62.3721 C.2       1            -0.0970
      7 C6         25.8250   16.0528   61.8010 C.2       1            -0.1389
      8 C7         24.6192   16.6585   61.7746 C.2       1             0.0575
      9 N2         23.5163   16.0439   62.3011 N.pl3     1            -0.3350
     10 C8         22.2116   16.4479   62.3916 C.2       1            -0.0288
     11 C9         21.4832   15.4895   62.9940 C.2       1            -0.0820
     12 C10        20.0040   15.5445   63.2770 C.3       1             0.1903
     13 N3         19.7515   15.0874   64.6458 N.pl3     1            -0.7421
     14 C11        18.4460   15.0497   65.1395 C.ar      1             0.2236
     15 C12        17.3999   15.4386   64.3315 C.ar      1            -0.2080
     16 C13        16.0886   15.3992   64.8314 C.ar      1             0.0011
     17 C14        14.9949   15.7873   64.0378 C.ar      1            -0.1257
     18 C15        13.7367   15.7366   64.5540 C.ar      1            -0.1035
     19 C16        13.5142   15.3047   65.8604 C.ar      1            -0.1412
     20 C17        14.5484   14.9213   66.6577 C.ar      1            -0.0886
     21 C18        15.8623   14.9598   66.1603 C.ar      1            -0.0992
     22 C19        16.9528   14.5703   66.9571 C.ar      1            -0.0609
     23 C20        18.2128   14.6117   66.4485 C.ar      1            -0.1712
     24 H1         24.9711   13.1741   63.3438 H         1             0.1465
     25 H2         26.9336   14.2963   62.3925 H         1             0.1429
     26 H3         26.6856   16.5519   61.3805 H         1             0.1539
     27 H4         24.5239   17.6393   61.3325 H         1             0.1707
     28 H5         21.8249   17.3894   62.0303 H         1             0.1820
     29 H6         19.6505   16.5695   63.1651 H         1             0.0764
     30 H7         19.4756   14.8993   62.5751 H         1             0.0720
     31 H8         20.4911   14.8108   65.2091 H         1             0.4026
     32 H9         17.5874   15.7714   63.3213 H         1             0.1224
     33 H10        15.1523   16.1244   63.0240 H         1             0.1228
     34 H11        12.8983   16.0356   63.9424 H         1             0.1197
     35 H12        12.5059   15.2741   66.2459 H         1             0.1194
     36 H13        14.3603   14.5893   67.6681 H         1             0.1232
     37 H14        16.7894   14.2344   67.9704 H         1             0.1279
     38 H15        19.0459   14.3070   67.0646 H         1             0.1240
@<TRIPOS>BOND
     1    1    2 3 
     2    2    3 1 
     3    3   11 1 
     4    3    4 2 
     5    4    9 1 
     6    4    5 1 
     7    5    6 2 
     8    5   24 1 
     9    6    7 1 
    10    6   25 1 
    11    7    8 2 
    12    7   26 1 
    13    8    9 1 
    14    8   27 1 
    15    9   10 1 
    16   10   11 2 
    17   10   28 1 
    18   11   12 1 
    19   12   13 1 
    20   12   29 1 
    21   12   30 1 
    22   13   14 1 
    23   13   31 1 
    24   14   23 ar
    25   14   15 ar
    26   15   16 ar
    27   15   32 1 
    28   16   21 ar
    29   16   17 ar
    30   17   18 ar
    31   17   33 1 
    32   18   19 ar
    33   18   34 1 
    34   19   20 ar
    35   19   35 1 
    36   20   21 ar
    37   20   36 1 
    38   21   22 ar
    39   22   23 ar
    40   22   37 1 
    41   23   38 1 
##########                 Name:              E624188
##########          Protonation:                   68
##########               SMILES:   c1ccc(cc1)c2cc([nH]n2)C(=O)N/N=C\c3ccccn3
##########            Long Name:   3-phenyl-N-[(Z)-2-pyridylmethyleneamino]-1H-pyrazole-5-carboxamide
##########          FlexRecCode: 1
##########               Number:                  581
##########   Ligand Source File: /raidb/db2/rgc/leads-emolecules-300/leads-emolecules-2e-0000065.db2.gz
##########           GlobalRank: 3711
##########                 Rank:                    1
##########               Setnum:                   97
##########             Matchnum:                 3607
##########                Cloud:                    1
##########        Electrostatic:            -7.773861
##########        Van der Waals:           -36.460442
##########  Ligand Polar Desolv:             6.828433
########## Ligand Apolar Desolv:            -2.878021
##########      Internal Energy:             0.000000
##########      Receptor Energy: 0.0
########## Receptor Desolvation:             0.000000
########## Receptor Hydrophobic:             0.000000
##########         Total Energy: -40.28
##########        Ligand Charge:             0.000000
##########            Arbitrary:    +999.9990
##########     heavy atom count:   22
##########           pose count:    1
##########        Ligand Energy:             0.000000
# num electro vdwattr vdwrepu polsolv apolsol rdesolv rhydroe totalscore fullpol fullapo
#   1   -1.92   -2.93    0.84    4.41    0.27    0.00    0.00       0.67    6.90    0.42
#   2    1.88   -2.00    0.56   -2.80   -0.40    0.00    0.00      -2.76   -4.72   -0.67
#   3   -0.98   -1.99    0.50    1.54    0.66    0.00    0.00      -0.26    3.01    1.30
#   4    0.34   -2.85    1.30    0.76    0.56    0.00    0.00       0.12    1.52    1.11
#   5   -0.32   -2.01    0.62    0.04   -0.42    0.00    0.00      -2.09    0.10   -0.99
#   6   -0.36   -1.41    0.26    0.03   -0.27    0.00    0.00      -1.75    0.08   -0.73
#   7    0.63   -0.89    0.09   -0.18   -0.13    0.00    0.00      -0.47   -0.62   -0.45
#   8    0.45   -0.94    0.23   -0.11   -0.11    0.00    0.00      -0.48   -0.48   -0.48
#   9    1.28   -1.56    0.70   -0.25   -0.14    0.00    0.00       0.03   -0.82   -0.48
#  10   -0.47   -2.06    0.67    0.09   -0.39    0.00    0.00      -2.16    0.23   -0.98
#  11    0.88   -2.04    0.70   -0.10    0.50    0.00    0.00      -0.06   -0.24    1.24
#  12   -0.18   -1.62    0.24    0.13   -0.45    0.00    0.00      -1.89    0.22   -0.77
#  13   -0.85   -2.15    0.62    0.49   -0.28    0.00    0.00      -2.16    0.82   -0.47
#  14    0.83   -2.00    0.43   -0.17   -0.46    0.00    0.00      -1.38   -0.29   -0.77
#  15   -3.97   -2.33    0.86    0.61    0.62    0.00    0.00      -4.21    1.12    1.14
#  16   -3.07   -1.72    0.31    0.48    0.33    0.00    0.00      -3.67    0.97    0.66
#  17   -0.15   -2.45    0.83    0.11   -0.26    0.00    0.00      -1.92    0.18   -0.41
#  18   -1.48   -2.92    1.00    0.18   -0.27    0.00    0.00      -3.49    0.30   -0.46
#  19   -1.57   -2.61    0.75    0.06   -0.30    0.00    0.00      -3.66    0.10   -0.47
#  20   -1.25   -2.37    0.53    0.01   -0.31    0.00    0.00      -3.39    0.02   -0.47
#  21   -0.80   -3.17    0.92    0.09   -0.30    0.00    0.00      -3.25    0.14   -0.47
#  22   -0.66   -2.93    0.95    0.23   -0.29    0.00    0.00      -2.70    0.36   -0.45
#  23    1.01   -0.03    0.00   -0.39    0.08    0.00    0.00       0.67   -1.11    0.24
#  24   -0.77   -0.36    0.09    0.51   -0.09    0.00    0.00      -0.62    1.59   -0.28
#  25   -0.48   -0.12    0.00    0.21   -0.03    0.00    0.00      -0.42    1.76   -0.28
#  26   -0.88   -0.10    0.01    0.17   -0.03    0.00    0.00      -0.83    1.73   -0.28
#  27   -1.27   -0.23    0.03    0.31   -0.06    0.00    0.00      -1.22    1.50   -0.28
#  28   -0.49   -0.45    0.07    0.48   -0.12    0.00    0.00      -0.50    1.16   -0.28
#  29    0.53   -0.63    0.29   -0.40   -0.13    0.00    0.00      -0.34   -0.82   -0.26
#  30    1.92   -0.03    0.00    0.08    0.12    0.00    0.00       2.10    0.24    0.36
#  31    1.54   -0.82    0.49   -0.11   -0.14    0.00    0.00       0.96   -0.19   -0.24
#  32    1.24   -0.67    0.33    0.14   -0.14    0.00    0.00       0.90    0.28   -0.28
#  33    1.25   -0.46    0.09    0.23   -0.16    0.00    0.00       0.95    0.40   -0.28
#  34    0.11   -0.94    0.46    0.13   -0.17    0.00    0.00      -0.42    0.21   -0.28
#  35    0.25   -0.64    0.18   -0.21   -0.16    0.00    0.00      -0.57   -0.35   -0.27
@<TRIPOS>MOLECULE
E624188
   35    37     0     0     0
SMALL
USER_CHARGES


@<TRIPOS>ATOM
      1 O1         21.2748   12.5376   63.0105 O.2       1            -0.4871
      2 C1         21.3321   13.6651   63.4639 C.2       1             0.6016
      3 N1         22.5237   14.1944   63.8051 N.am      1            -0.5696
      4 N2         23.6963   13.4462   63.6376 N.2       1            -0.1911
      5 C2         24.8202   14.0475   63.3921 C.2       1             0.1017
      6 C3         24.8357   15.4939   63.1074 C.ar      1             0.1143
      7 C4         25.8158   16.0244   62.2653 C.ar      1            -0.1342
      8 C5         25.8165   17.3835   62.0086 C.ar      1            -0.0649
      9 C6         24.8380   18.1709   62.6007 C.ar      1            -0.1561
     10 C7         23.8970   17.5804   63.4244 C.ar      1             0.1022
     11 N3         23.9136   16.2828   63.6498 N.ar      1            -0.5016
     12 C8         20.1014   14.4529   63.6342 C.2       1            -0.0325
     13 C9         19.0117   14.1263   64.4196 C.2       1            -0.1292
     14 C10        18.1018   15.1858   64.2509 C.2       1             0.0693
     15 N4         18.6481   16.0510   63.4226 N.2       1            -0.2513
     16 N5         19.8120   15.6549   63.0514 N.pl3     1            -0.3730
     17 C11        16.7677   15.3063   64.8906 C.ar      1            -0.0115
     18 C12        15.7383   15.9816   64.2386 C.ar      1            -0.0988
     19 C13        14.4997   16.0908   64.8379 C.ar      1            -0.1181
     20 C14        14.2798   15.5315   66.0837 C.ar      1            -0.1135
     21 C15        15.2983   14.8600   66.7354 C.ar      1            -0.1207
     22 C16        16.5389   14.7396   66.1424 C.ar      1            -0.0946
     23 H1         22.5694   15.0934   64.1665 H         1             0.4053
     24 H2         25.7440   13.4881   63.3960 H         1             0.2008
     25 H3         26.5626   15.3829   61.8216 H         1             0.1496
     26 H4         26.5616   17.8227   61.3620 H         1             0.1450
     27 H5         24.8122   19.2353   62.4198 H         1             0.1441
     28 H6         23.1352   18.1912   63.8859 H         1             0.1636
     29 H7         18.8857   13.2456   65.0318 H         1             0.1719
     30 H8         20.3976   16.1360   62.4462 H         1             0.4448
     31 H9         15.9091   16.4193   63.2662 H         1             0.1281
     32 H10        13.7010   16.6140   64.3334 H         1             0.1274
     33 H11        13.3094   15.6198   66.5494 H         1             0.1240
     34 H12        15.1215   14.4254   67.7082 H         1             0.1255
     35 H13        17.3323   14.2112   66.6502 H         1             0.1287
@<TRIPOS>BOND
     1    1    2 2 
     2    2    3 am
     3    2   12 1 
     4    3    4 1 
     5    3   23 1 
     6    4    5 2 
     7    5    6 1 
     8    5   24 1 
     9    6   11 ar
    10    6    7 ar
    11    7    8 ar
    12    7   25 1 
    13    8    9 ar
    14    8   26 1 
    15    9   10 ar
    16    9   27 1 
    17   10   11 ar
    18   10   28 1 
    19   12   16 1 
    20   12   13 2 
    21   13   14 1 
    22   13   29 1 
    23   14   15 2 
    24   14   17 1 
    25   15   16 1 
    26   16   30 1 
    27   17   22 ar
    28   17   18 ar
    29   18   19 ar
    30   18   31 1 
    31   19   20 ar
    32   19   32 1 
    33   20   21 ar
    34   20   33 1 
    35   21   22 ar
    36   21   34 1 
    37   22   35 1 
##########                 Name:            E32421977
##########          Protonation:                   52
##########               SMILES:   C=Cc1cccc(c1)C[NH+]2CCN(CC2)c3ncc(cn3)F
##########            Long Name:   5-fluoro-2-[4-[(3-vinylphenyl)methyl]piperazin-4-ium-1-yl]pyrimidine
##########          FlexRecCode: 1
##########               Number:                  633
##########   Ligand Source File: /raidb/db2/rgc/leads-emolecules-300/leads-emolecules-3-bo-0000018.db2.gz
##########           GlobalRank: 3711
##########                 Rank:                    1
##########               Setnum:                   45
##########             Matchnum:                 5114
##########                Cloud:                    1
##########        Electrostatic:           -17.832088
##########        Van der Waals:           -26.680510
##########  Ligand Polar Desolv:             8.543035
########## Ligand Apolar Desolv:            -4.306709
##########      Internal Energy:             0.000000
##########      Receptor Energy: 0.0
########## Receptor Desolvation:             0.000000
########## Receptor Hydrophobic:             0.000000
##########         Total Energy: -40.28
##########        Ligand Charge:             1.000000
##########            Arbitrary:    +999.9990
##########     heavy atom count:   22
##########           pose count:    1
##########        Ligand Energy:             0.000000
# num electro vdwattr vdwrepu polsolv apolsol rdesolv rhydroe totalscore fullpol fullapo
#   1   -0.63   -1.99    0.64   -0.70   -0.31    0.00    0.00      -3.00   -1.08   -0.48
#   2   -0.14   -2.05    0.43   -0.67   -0.20    0.00    0.00      -2.64   -1.15   -0.35
#   3    0.85   -1.62    0.29    1.08   -0.57    0.00    0.00       0.02    1.87   -0.98
#   4   -2.76   -1.60    0.31   -3.18    0.81    0.00    0.00      -6.43   -7.02    1.79
#   5    0.25   -1.46    0.27    3.20   -1.97    0.00    0.00       0.29    7.60   -4.68
#   6    0.43   -1.49    0.24   -2.91    0.76    0.00    0.00      -2.96   -6.82    1.79
#   7    0.04   -2.06    0.62    0.88   -0.48    0.00    0.00      -1.00    1.78   -0.98
#   8    1.96   -1.29    0.12   -5.21    0.73    0.00    0.00      -3.69  -12.19    1.71
#   9   -0.98   -0.82    0.09    0.96   -0.22    0.00    0.00      -0.97    2.11   -0.48
#  10    0.35   -0.69    0.04    0.16   -0.16    0.00    0.00      -0.31    0.39   -0.40
#  11    5.47   -1.07    0.18   -4.34    0.10    0.00    0.00       0.35  -11.88    0.27
#  12   -7.28   -0.05    0.00    4.93    0.17    0.00    0.00      -2.23   15.59    0.53
#  13   -0.67   -0.62    0.06    0.63   -0.11    0.00    0.00      -0.70    2.12   -0.36
#  14    1.29   -1.35    0.43   -0.83   -0.09    0.00    0.00      -0.55   -2.91   -0.33
#  15    0.94   -2.37    2.87   -0.50   -0.14    0.00    0.00       0.81   -1.62   -0.44
#  16   -0.07   -1.97    1.05   -0.56   -0.13    0.00    0.00      -1.69   -1.74   -0.41
#  17    0.22   -1.57    0.33   -0.57   -0.18    0.00    0.00      -1.76   -1.47   -0.45
#  18    0.80   -1.11    0.08   -0.96   -0.13    0.00    0.00      -1.31   -2.38   -0.32
#  19   -0.24   -1.69    0.50   -0.64   -0.14    0.00    0.00      -2.20   -1.97   -0.44
#  20   -0.29   -1.49    0.48   -0.76   -0.14    0.00    0.00      -2.19   -2.57   -0.47
#  21   -0.04   -1.35    0.38   -0.49   -0.09    0.00    0.00      -1.60   -1.93   -0.36
#  22    0.21   -1.27    0.36    0.01   -0.13    0.00    0.00      -0.82    0.03   -0.37
#  23   -0.43   -1.72    0.44    1.03   -0.22    0.00    0.00      -0.91    2.25   -0.49
#  24    1.12   -0.29    0.02    1.05   -0.11    0.00    0.00       1.79    2.65   -0.28
#  25   -0.37   -0.49    0.16    1.01   -0.11    0.00    0.00       0.20    2.48   -0.28
#  26   -1.21   -0.33    0.09    0.68   -0.08    0.00    0.00      -0.85    2.10   -0.24
#  27   -0.89   -0.41    0.21    1.05   -0.09    0.00    0.00      -0.13    3.31   -0.28
#  28   -2.07   -0.19    0.01    0.97   -0.06    0.00    0.00      -1.34    4.49   -0.28
#  29   -3.49   -0.30    0.04    2.44   -0.09    0.00    0.00      -1.40    7.60   -0.28
#  30   -1.59   -0.12    0.01    0.61   -0.03    0.00    0.00      -1.12    5.81   -0.28
#  31   -3.09   -0.30    0.10    1.62   -0.06    0.00    0.00      -1.73    6.94   -0.27
#  32   -2.73   -0.45    0.25    1.35   -0.08    0.00    0.00      -1.65    4.81   -0.28
#  33    0.07   -0.45    0.14    0.76   -0.10    0.00    0.00       0.43    2.16   -0.28
#  34   -0.70   -0.28    0.04    0.21   -0.07    0.00    0.00      -0.79    0.86   -0.28
#  35   -0.63   -0.17    0.01    0.13   -0.04    0.00    0.00      -0.70    0.75   -0.21
#  36    0.41   -0.41    0.31    0.22   -0.06    0.00    0.00       0.47    0.75   -0.21
#  37    0.39   -0.21    0.03    0.32   -0.05    0.00    0.00       0.47    1.70   -0.28
#  38   -0.03   -0.23    0.05    0.93   -0.05    0.00    0.00       0.67    4.70   -0.27
#  39   -1.13   -0.24    0.05    0.82   -0.05    0.00    0.00      -0.55    4.52   -0.28
#  40   -0.67   -0.87    0.88    1.56   -0.07    0.00    0.00       0.83    4.46   -0.20
#  41   -0.31   -0.87    0.40    1.46   -0.14    0.00    0.00       0.54    2.86   -0.28
#  42   -0.21   -0.89    0.51    0.80   -0.11    0.00    0.00       0.09    1.73   -0.24
@<TRIPOS>MOLECULE
E32421977
   42    44     0     0     0
SMALL
USER_CHARGES


@<TRIPOS>ATOM
      1 F1         21.5372   12.3544   64.1322 F         1            -0.1142
      2 C1         21.7495   13.6528   63.8249 C.ar      1            -0.0437
      3 C2         20.6866   14.5380   63.7114 C.ar      1             0.1758
      4 N1         20.9303   15.8028   63.4096 N.ar      1            -0.5402
      5 C3         22.1702   16.2266   63.2168 C.ar      1             0.5500
      6 N2         23.2072   15.4086   63.3169 N.ar      1            -0.5402
      7 C4         23.0357   14.1326   63.6214 C.ar      1             0.1757
      8 N3         22.3880   17.5581   62.9022 N.pl3     1            -0.6029
      9 C5         21.7966   18.1566   61.6954 C.3       1             0.1068
     10 C6         22.9027   18.8790   60.9194 C.3       1            -0.0208
     11 N4         23.5741   19.8385   61.8050 N.4       1            -0.3832
     12 H1         22.8903   20.4690   62.1960 H         1             0.4230
     13 C7         24.5610   20.6063   61.0340 C.3       1             0.0447
     14 C8         24.8908   21.8807   61.7677 C.ar      1            -0.1563
     15 C9         24.1519   23.0219   61.5316 C.ar      1            -0.0893
     16 C10        24.4585   24.2009   62.2119 C.ar      1            -0.0393
     17 C11        23.6709   25.4270   61.9641 C.2       1            -0.1468
     18 C12        23.6221   25.9487   60.7464 C.2       1            -0.1466
     19 C13        25.5115   24.2175   63.1274 C.ar      1            -0.0870
     20 C14        26.2424   23.0697   63.3544 C.ar      1            -0.1060
     21 C15        25.9297   21.9023   62.6806 C.ar      1            -0.1041
     22 C16        24.2559   19.1239   62.8916 C.3       1            -0.0265
     23 C17        23.2122   18.4152   63.7684 C.3       1             0.1093
     24 H2         19.6733   14.1984   63.8672 H         1             0.1884
     25 H3         23.8856   13.4717   63.7065 H         1             0.1882
     26 H4         21.3635   17.3737   61.0728 H         1             0.1416
     27 H5         21.0240   18.8702   61.9816 H         1             0.0938
     28 H6         23.6277   18.1501   60.5568 H         1             0.1336
     29 H7         22.4661   19.4094   60.0730 H         1             0.1460
     30 H8         25.4672   20.0132   60.9108 H         1             0.1360
     31 H9         24.1487   20.8476   60.0542 H         1             0.1391
     32 H10        23.3383   23.0027   60.8216 H         1             0.1330
     33 H11        23.1353   25.8978   62.7753 H         1             0.1246
     34 H12        23.0467   26.8444   60.5653 H         1             0.1145
     35 H13        24.1578   25.4777   59.9354 H         1             0.1049
     36 H14        25.7540   25.1271   63.6569 H         1             0.1374
     37 H15        27.0577   23.0813   64.0627 H         1             0.1379
     38 H16        26.5021   21.0053   62.8652 H         1             0.1311
     39 H17        24.9399   18.3876   62.4693 H         1             0.1330
     40 H18        24.8164   19.8347   63.4987 H         1             0.1448
     41 H19        22.5801   19.1544   64.2603 H         1             0.0935
     42 H20        23.7154   17.8032   64.5168 H         1             0.1404
@<TRIPOS>BOND
     1    1    2 1 
     2    2    7 ar
     3    2    3 ar
     4    3    4 ar
     5    3   24 1 
     6    4    5 ar
     7    5    6 ar
     8    5    8 1 
     9    6    7 ar
    10    7   25 1 
    11    8   23 1 
    12    8    9 1 
    13    9   10 1 
    14    9   26 1 
    15    9   27 1 
    16   10   11 1 
    17   10   28 1 
    18   10   29 1 
    19   11   12 1 
    20   11   13 1 
    21   11   22 1 
    22   13   14 1 
    23   13   30 1 
    24   13   31 1 
    25   14   21 ar
    26   14   15 ar
    27   15   16 ar
    28   15   32 1 
    29   16   17 1 
    30   16   19 ar
    31   17   18 2 
    32   17   33 1 
    33   18   34 1 
    34   18   35 1 
    35   19   20 ar
    36   19   36 1 
    37   20   21 ar
    38   20   37 1 
    39   21   38 1 
    40   22   23 1 
    41   22   39 1 
    42   22   40 1 
    43   23   41 1 
    44   23   42 1 
##########                 Name:             E2465958
##########          Protonation:                   13
##########               SMILES:   C[C@@H]1C[C@@H]([C@@H](C[NH+]1C)C)NCc2ccc3c(c2)OCO3
##########            Long Name:   S,5R)-N-(1,3-benzodioxol-5-ylmethyl)-1,2,5-trimethyl-piperidin-1-ium-4-amine
##########          FlexRecCode: 1
##########               Number:                  627
##########   Ligand Source File: /raidb/db2/rgc/leads-emolecules-300/leads-emolecules-3-au-0000010.db2.gz
##########           GlobalRank: 3731
##########                 Rank:                    1
##########               Setnum:                   12
##########             Matchnum:                  543
##########                Cloud:                    1
##########        Electrostatic:           -19.368898
##########        Van der Waals:           -25.415359
##########  Ligand Polar Desolv:             6.472260
########## Ligand Apolar Desolv:            -1.955269
##########      Internal Energy:             0.000000
##########      Receptor Energy: 0.0
########## Receptor Desolvation:             0.000000
########## Receptor Hydrophobic:             0.000000
##########         Total Energy: -40.27
##########        Ligand Charge:             1.000000
##########            Arbitrary:    +999.9990
##########     heavy atom count:   20
##########           pose count:    1
##########        Ligand Energy:             0.000000
# num electro vdwattr vdwrepu polsolv apolsol rdesolv rhydroe totalscore fullpol fullapo
#   1    1.09   -0.76    0.11   -1.12   -0.06    0.00    0.00      -0.74   -3.26   -0.16
#   2    1.54   -0.81    0.14   -0.77   -0.05    0.00    0.00       0.04   -2.33   -0.15
#   3    0.05   -0.56    0.07    0.04   -0.10    0.00    0.00      -0.49    0.15   -0.38
#   4    6.98   -1.22    0.82   -3.04    0.09    0.00    0.00       3.61  -10.91    0.31
#   5  -14.38   -0.12    0.05    4.73    0.15    0.00    0.00      -9.59   17.07    0.53
#   6    0.58   -0.49    0.07   -0.43   -0.10    0.00    0.00      -0.36   -1.94   -0.44
#   7   -0.43   -0.75    0.10    0.60   -0.08    0.00    0.00      -0.56    1.81   -0.24
#   8    1.59   -1.22    0.36   -1.52   -0.05    0.00    0.00      -0.83   -4.82   -0.17
#   9    2.32   -0.74    0.05   -1.26   -0.08    0.00    0.00       0.30   -3.08   -0.19
#  10   -1.01   -0.61    0.04    0.68   -0.08    0.00    0.00      -0.98    1.90   -0.23
#  11    5.03   -1.20    0.17   -4.40    0.78    0.00    0.00       0.37  -12.54    2.21
#  12   -0.28   -1.24    0.21    0.83   -0.19    0.00    0.00      -0.68    1.87   -0.43
#  13   -0.03   -1.67    0.33   -0.25   -0.16    0.00    0.00      -1.77   -0.58   -0.37
#  14    0.08   -1.89    0.60   -0.40   -0.19    0.00    0.00      -1.81   -0.94   -0.45
#  15    0.07   -2.29    0.84   -0.40   -0.23    0.00    0.00      -2.01   -0.81   -0.47
#  16    0.10   -2.23    0.53   -0.14   -0.19    0.00    0.00      -1.92   -0.25   -0.33
#  17   -1.79   -3.49    1.62   -0.35    0.34    0.00    0.00      -3.66   -0.54    0.52
#  18    0.55   -2.06    0.51    0.53    0.01    0.00    0.00      -0.45    0.80    0.02
#  19   -1.43   -1.48    0.17   -0.48    0.32    0.00    0.00      -2.91   -0.79    0.52
#  20    0.13   -1.68    0.38   -0.11   -0.19    0.00    0.00      -1.48   -0.20   -0.33
#  21   -0.31   -1.72    0.44   -0.31   -0.20    0.00    0.00      -2.11   -0.70   -0.45
#  22   -0.39   -0.27    0.04    0.05   -0.06    0.00    0.00      -0.62    0.20   -0.23
#  23   -0.37   -0.12    0.00    0.17   -0.04    0.00    0.00      -0.35    1.36   -0.28
#  24   -0.39   -0.42    0.20    0.44   -0.06    0.00    0.00      -0.24    1.27   -0.18
#  25   -2.21   -0.60    0.38    0.84   -0.10    0.00    0.00      -1.69    2.34   -0.29
#  26   -1.08   -0.10    0.00    0.55   -0.03    0.00    0.00      -0.65    5.13   -0.27
#  27   -1.27   -0.18    0.02    0.96   -0.05    0.00    0.00      -0.51    5.80   -0.29
#  28   -1.13   -0.13    0.01    0.64   -0.04    0.00    0.00      -0.64    4.58   -0.27
#  29   -0.64   -0.08    0.00    0.31   -0.02    0.00    0.00      -0.42    4.00   -0.22
#  30   -0.87   -0.16    0.02    0.31   -0.02    0.00    0.00      -0.72    2.17   -0.17
#  31   -2.79   -0.31    0.08    1.43   -0.08    0.00    0.00      -1.67    5.23   -0.28
#  32   -0.72   -0.99    0.88    1.13   -0.10    0.00    0.00       0.21    3.08   -0.28
#  33   -0.82   -0.30    0.08    0.29   -0.06    0.00    0.00      -0.82    1.27   -0.28
#  34   -0.37   -0.28    0.05    0.38   -0.05    0.00    0.00      -0.26    1.74   -0.23
#  35   -1.48   -0.28    0.03    0.43   -0.06    0.00    0.00      -1.36    1.50   -0.21
#  36   -2.60   -0.32    0.05    0.46   -0.08    0.00    0.00      -2.49    1.40   -0.25
#  37   -0.61   -0.26    0.07    0.43   -0.06    0.00    0.00      -0.44    1.88   -0.26
#  38   -2.38   -0.02    0.00    1.08    0.09    0.00    0.00      -1.23    5.97    0.47
#  39   -0.09   -0.82    0.32    0.75   -0.12    0.00    0.00       0.05    1.57   -0.25
#  40   -0.15   -0.34    0.05    0.49   -0.10    0.00    0.00      -0.05    1.32   -0.27
#  41   -0.29   -0.36    0.10    0.77   -0.08    0.00    0.00       0.14    2.84   -0.28
#  42   -0.51   -0.60    0.33    0.42   -0.12    0.00    0.00      -0.47    1.02   -0.28
#  43    0.37   -0.77    0.38    0.73   -0.18    0.00    0.00       0.54    1.17   -0.28
#  44   -0.21   -1.11    1.16    0.50   -0.18    0.00    0.00       0.16    0.77   -0.28
#  45    1.16   -0.38    0.10    0.47   -0.09    0.00    0.00       1.26    1.43   -0.28
@<TRIPOS>MOLECULE
E2465958
   45    47     0     0     0
SMALL
USER_CHARGES


@<TRIPOS>ATOM
      1 C1         25.2973   16.4193   60.4737 C.3       1            -0.1538
      2 C2         24.6242   17.7668   60.2056 C.3       1            -0.1114
      3 C3         25.6577   18.8885   60.3284 C.3       1            -0.0042
      4 N1         25.0160   20.1841   60.0737 N.4       1            -0.3718
      5 H1         24.5955   20.1744   59.1566 H         1             0.4266
      6 C4         26.0268   21.2483   60.1346 C.3       1            -0.0602
      7 C5         23.9797   20.4411   61.0814 C.3       1             0.0250
      8 C6         24.6063   20.4032   62.4767 C.3       1            -0.1819
      9 C7         22.8885   19.3730   60.9845 C.3       1            -0.1297
     10 C8         23.5113   17.9964   61.2316 C.3       1             0.0843
     11 N2         24.0736   17.9463   62.5878 N.3       1            -0.6756
     12 C9         23.0248   17.6873   63.5833 C.3       1             0.1045
     13 C10        22.7068   16.2144   63.6063 C.ar      1            -0.0875
     14 C11        23.7326   15.2875   63.6118 C.ar      1            -0.1015
     15 C12        23.4468   13.9347   63.6330 C.ar      1            -0.0997
     16 C13        22.1306   13.5065   63.6489 C.ar      1             0.0415
     17 O1         21.5697   12.2649   63.6710 O.3       1            -0.3060
     18 C14        20.2137   12.4218   63.2267 C.3       1             0.2128
     19 O2         19.9180   13.7573   63.6621 O.3       1            -0.3074
     20 C15        21.0967   14.4407   63.6433 C.ar      1             0.0331
     21 C16        21.3898   15.7933   63.6277 C.ar      1            -0.0781
     22 H2         26.0894   16.2570   59.7427 H         1             0.0830
     23 H3         25.7232   16.4192   61.4771 H         1             0.0651
     24 H4         24.5588   15.6217   60.3923 H         1             0.0600
     25 H5         24.2004   17.7692   59.2014 H         1             0.1079
     26 H6         26.0795   18.8843   61.3335 H         1             0.1328
     27 H7         26.4537   18.7291   59.6011 H         1             0.1271
     28 H8         25.5525   22.2113   59.9457 H         1             0.1237
     29 H9         26.4860   21.2572   61.1231 H         1             0.1273
     30 H10        26.7921   21.0661   59.3801 H         1             0.1217
     31 H11        23.5410   21.4236   60.9076 H         1             0.1347
     32 H12        23.8377   20.5939   63.2255 H         1             0.0811
     33 H13        25.0473   19.4216   62.6504 H         1             0.1043
     34 H14        25.3806   21.1671   62.5480 H         1             0.0839
     35 H15        22.1217   19.5661   61.7349 H         1             0.0976
     36 H16        22.4413   19.3977   59.9908 H         1             0.1062
     37 H17        22.7487   17.2253   61.1224 H         1             0.0616
     38 H18        24.8086   17.2578   62.6493 H         1             0.3534
     39 H19        23.3734   17.9992   64.5678 H         1             0.0855
     40 H20        22.1280   18.2485   63.3207 H         1             0.0503
     41 H21        24.7599   15.6208   63.5992 H         1             0.1349
     42 H22        24.2499   13.2127   63.6368 H         1             0.1390
     43 H23        20.1469   12.3413   62.1417 H         1             0.1368
     44 H24        19.5579   11.6989   63.7119 H         1             0.0885
     45 H25        20.5904   16.5195   63.6282 H         1             0.1346
@<TRIPOS>BOND
     1    1    2 1 
     2    1   22 1 
     3    1   23 1 
     4    1   24 1 
     5    2   10 1 
     6    2    3 1 
     7    2   25 1 
     8    3    4 1 
     9    3   26 1 
    10    3   27 1 
    11    4    5 1 
    12    4    6 1 
    13    4    7 1 
    14    6   28 1 
    15    6   29 1 
    16    6   30 1 
    17    7    8 1 
    18    7    9 1 
    19    7   31 1 
    20    8   32 1 
    21    8   33 1 
    22    8   34 1 
    23    9   10 1 
    24    9   35 1 
    25    9   36 1 
    26   10   11 1 
    27   10   37 1 
    28   11   12 1 
    29   11   38 1 
    30   12   13 1 
    31   12   39 1 
    32   12   40 1 
    33   13   21 ar
    34   13   14 ar
    35   14   15 ar
    36   14   41 1 
    37   15   16 ar
    38   15   42 1 
    39   16   20 ar
    40   16   17 1 
    41   17   18 1 
    42   18   19 1 
    43   18   43 1 
    44   18   44 1 
    45   19   20 1 
    46   20   21 ar
    47   21   45 1 
##########                 Name:             E4378876
##########          Protonation:                   93
##########               SMILES:   c1ccc2c(c1)nc(c(=O)o2)CC(=O)c3ccc(cc3)Cl
##########            Long Name:   3-[2-(4-chlorophenyl)-2-oxo-ethyl]-1,4-benzoxazin-2-one
##########          FlexRecCode: 1
##########               Number:                  242
##########   Ligand Source File: /raidb/db2/rgc/leads-emolecules-300/leads-emolecules-3-cf-0000020.db2.gz
##########           GlobalRank: 3749
##########                 Rank:                    1
##########               Setnum:                   99
##########             Matchnum:                 6693
##########                Cloud:                    1
##########        Electrostatic:           -10.264882
##########        Van der Waals:           -30.433268
##########  Ligand Polar Desolv:             5.278094
########## Ligand Apolar Desolv:            -4.842057
##########      Internal Energy:             0.000000
##########      Receptor Energy: 0.0
########## Receptor Desolvation:             0.000000
########## Receptor Hydrophobic:             0.000000
##########         Total Energy: -40.26
##########        Ligand Charge:             0.000000
##########            Arbitrary:    +999.9990
##########     heavy atom count:   21
##########           pose count:    1
##########        Ligand Energy:             0.000000
# num electro vdwattr vdwrepu polsolv apolsol rdesolv rhydroe totalscore fullpol fullapo
#   1   -0.44   -4.24    1.54    0.03   -0.63    0.00    0.00      -3.75    0.04   -0.98
#   2   -0.07   -2.36    1.04   -0.01   -0.19    0.00    0.00      -1.58   -0.01   -0.29
#   3   -1.00   -2.93    1.04    0.02   -0.30    0.00    0.00      -3.16    0.03   -0.46
#   4   -0.40   -2.87    0.82    0.03   -0.29    0.00    0.00      -2.71    0.04   -0.46
#   5   -2.21   -2.50    0.76   -0.08   -0.26    0.00    0.00      -4.30   -0.13   -0.41
#   6   -0.84   -3.09    1.32   -0.10   -0.26    0.00    0.00      -2.98   -0.17   -0.44
#   7   -1.26   -3.03    1.61   -0.19   -0.28    0.00    0.00      -3.14   -0.31   -0.46
#   8    5.67   -2.18    0.39   -0.15   -0.20    0.00    0.00       3.53   -0.24   -0.31
#   9   -8.07   -3.80    2.55    1.36    0.20    0.00    0.00      -7.76    2.26    0.33
#  10   -0.88   -1.46    0.47   -0.12   -0.11    0.00    0.00      -2.11   -0.20   -0.19
#  11    0.65   -1.65    0.24   -0.11   -0.42    0.00    0.00      -1.28   -0.20   -0.76
#  12   -3.92   -1.98    0.55    0.87    0.66    0.00    0.00      -3.82    1.74    1.32
#  13   -0.03   -1.83    0.63    0.08   -0.32    0.00    0.00      -1.47    0.18   -0.71
#  14    0.10   -2.05    0.86    0.02   -0.22    0.00    0.00      -1.28    0.04   -0.46
#  15    1.62   -1.44    0.25   -0.16   -0.21    0.00    0.00       0.06   -0.35   -0.47
#  16    0.58   -1.13    0.19   -0.06   -0.18    0.00    0.00      -0.59   -0.15   -0.47
#  17    0.54   -1.18    0.22   -0.02   -0.18    0.00    0.00      -0.62   -0.05   -0.47
#  18    0.07   -1.49    0.38   -0.07   -0.12    0.00    0.00      -1.24   -0.17   -0.30
#  19   -0.88   -1.67    0.44    0.70   -0.01    0.00    0.00      -1.41    1.48   -0.03
#  20    2.45   -1.95    0.54   -1.24   -0.09    0.00    0.00      -0.30   -2.16   -0.16
#  21   -1.91   -2.53    1.16    1.64   -0.25    0.00    0.00      -1.89    2.65   -0.41
#  22    0.91   -0.91    0.73    0.06   -0.17    0.00    0.00       0.62    0.10   -0.28
#  23    0.55   -0.67    0.15   -0.13   -0.15    0.00    0.00      -0.25   -0.21   -0.26
#  24    1.56   -0.80    0.44    0.90   -0.14    0.00    0.00       1.96    1.58   -0.24
#  25    1.18   -0.84    0.45    0.41   -0.15    0.00    0.00       1.05    0.77   -0.28
#  26    0.65   -0.55    0.21    0.41   -0.13    0.00    0.00       0.59    0.88   -0.28
#  27    1.02   -1.15    3.63    0.43   -0.12    0.00    0.00       3.81    1.01   -0.28
#  28   -0.65   -0.57    0.41   -0.04   -0.12    0.00    0.00      -0.98   -0.10   -0.28
#  29   -2.82   -0.30    0.03    0.44   -0.10    0.00    0.00      -2.74    1.25   -0.28
#  30   -1.84   -0.16    0.01    0.27   -0.05    0.00    0.00      -1.77    1.58   -0.28
#  31   -0.60   -0.20    0.01    0.07   -0.06    0.00    0.00      -0.76    0.37   -0.28
@<TRIPOS>MOLECULE
E4378876
   31    33     0     0     0
SMALL
USER_CHARGES


@<TRIPOS>ATOM
      1 Cl1        11.5918   15.0837   65.4795 Cl        1            -0.0587
      2 C1         13.3174   15.2510   65.3891 C.ar      1            -0.0072
      3 C2         14.1018   14.9034   66.4773 C.ar      1            -0.1216
      4 C3         15.4722   15.0336   66.4127 C.ar      1            -0.0476
      5 C4         16.0712   15.5176   65.2446 C.ar      1            -0.1625
      6 C5         15.2729   15.8660   64.1499 C.ar      1            -0.0645
      7 C6         13.9040   15.7259   64.2271 C.ar      1            -0.1216
      8 C7         17.5331   15.6597   65.1683 C.2       1             0.3902
      9 O1         18.0597   16.6992   65.5041 O.2       1            -0.3964
     10 C8         18.3768   14.5135   64.6725 C.3       1            -0.1046
     11 C9         19.6141   15.0535   64.0027 C.2       1             0.0771
     12 N1         19.5400   16.0554   63.1667 N.2       1            -0.3362
     13 C10        20.6629   16.5462   62.6010 C.ar      1            -0.0073
     14 C11        20.5774   17.4743   61.5529 C.ar      1            -0.0279
     15 C12        21.7165   17.9536   60.9735 C.ar      1            -0.1346
     16 C13        22.9647   17.5309   61.4099 C.ar      1            -0.0588
     17 C14        23.0742   16.6235   62.4431 C.ar      1            -0.1274
     18 C15        21.9285   16.1304   63.0516 C.ar      1             0.0927
     19 O2         22.0189   15.2616   64.0896 O.3       1            -0.2647
     20 C16        20.9392   14.4682   64.2788 C.2       1             0.4781
     21 O3         21.0586   13.3182   64.6569 O.2       1            -0.4168
     22 H1         13.6380   14.5301   67.3783 H         1             0.1413
     23 H2         16.0823   14.7631   67.2618 H         1             0.1448
     24 H3         15.7285   16.2406   63.2452 H         1             0.1438
     25 H4         13.2869   15.9911   63.3815 H         1             0.1421
     26 H5         18.6648   13.8838   65.5143 H         1             0.1347
     27 H6         17.8041   13.9238   63.9569 H         1             0.1310
     28 H7         19.6116   17.8092   61.2046 H         1             0.1485
     29 H8         21.6461   18.6685   60.1671 H         1             0.1423
     30 H9         23.8564   17.9151   60.9370 H         1             0.1451
     31 H10        24.0482   16.2980   62.7775 H         1             0.1465
@<TRIPOS>BOND
     1    1    2 1 
     2    2    7 ar
     3    2    3 ar
     4    3    4 ar
     5    3   22 1 
     6    4    5 ar
     7    4   23 1 
     8    5    6 ar
     9    5    8 1 
    10    6    7 ar
    11    6   24 1 
    12    7   25 1 
    13    8    9 2 
    14    8   10 1 
    15   10   11 1 
    16   10   26 1 
    17   10   27 1 
    18   11   20 1 
    19   11   12 2 
    20   12   13 1 
    21   13   18 ar
    22   13   14 ar
    23   14   15 ar
    24   14   28 1 
    25   15   16 ar
    26   15   29 1 
    27   16   17 ar
    28   16   30 1 
    29   17   18 ar
    30   17   31 1 
    31   18   19 1 
    32   19   20 1 
    33   20   21 2 
##########                 Name:             E6682254
##########          Protonation:                  100
##########               SMILES:   c1ccc2c(c1)c(=O)n(cn2)NC(=O)c3ccccc3Cl
##########            Long Name:   2-chloro-N-(4-oxoquinazolin-3-yl)benzamide
##########          FlexRecCode: 1
##########               Number:                   26
##########   Ligand Source File: /raidb/db2/rgc/leads-emolecules-300/leads-emolecules-3-cy-0000003.db2.gz
##########           GlobalRank: 3765
##########                 Rank:                    1
##########               Setnum:                   38
##########             Matchnum:                  254
##########                Cloud:                    1
##########        Electrostatic:            -9.732542
##########        Van der Waals:           -34.419140
##########  Ligand Polar Desolv:             8.016727
########## Ligand Apolar Desolv:            -4.116169
##########      Internal Energy:             0.000000
##########      Receptor Energy: 0.0
########## Receptor Desolvation:             0.000000
########## Receptor Hydrophobic:             0.000000
##########         Total Energy: -40.25
##########        Ligand Charge:             0.000000
##########            Arbitrary:    +999.9990
##########     heavy atom count:   21
##########           pose count:    1
##########        Ligand Energy:             0.000000
# num electro vdwattr vdwrepu polsolv apolsol rdesolv rhydroe totalscore fullpol fullapo
#   1    0.02  -10.05    7.03    0.31   -0.62    0.00    0.00      -3.30    0.45   -0.89
#   2    0.15   -2.96    0.96    0.02   -0.19    0.00    0.00      -2.01    0.03   -0.29
#   3   -1.01   -2.82    0.84   -0.10   -0.30    0.00    0.00      -3.39   -0.16   -0.46
#   4   -0.72   -2.20    0.60   -0.20   -0.31    0.00    0.00      -2.82   -0.30   -0.47
#   5   -1.25   -2.94    1.26   -0.40   -0.29    0.00    0.00      -3.62   -0.66   -0.47
#   6   -0.89   -3.18    1.63   -0.14   -0.26    0.00    0.00      -2.84   -0.23   -0.44
#   7   -1.60   -2.69    1.21    0.10   -0.26    0.00    0.00      -3.24    0.16   -0.41
#   8    6.74   -2.14    0.45   -1.33   -0.41    0.00    0.00       3.31   -2.11   -0.65
#   9   -6.63   -2.43    0.62    2.80    0.20    0.00    0.00      -5.45    4.61    0.33
#  10   -4.65   -3.03    2.75    0.43    0.72    0.00    0.00      -3.78    0.71    1.20
#  11   -2.28   -1.72    0.23    0.79    0.54    0.00    0.00      -2.44    1.33    0.92
#  12    1.38   -2.34    0.53   -0.56   -1.83    0.00    0.00      -2.81   -0.89   -2.91
#  13   -2.06   -2.49    0.48    1.23    1.27    0.00    0.00      -1.57    1.97    2.03
#  14    0.30   -1.94    0.48   -0.25   -0.38    0.00    0.00      -1.79   -0.47   -0.72
#  15    0.15   -2.28    0.77    0.05   -0.23    0.00    0.00      -1.54    0.10   -0.47
#  16    0.17   -1.55    0.30   -0.05   -0.19    0.00    0.00      -1.32   -0.11   -0.47
#  17    0.39   -1.34    0.20   -0.03   -0.18    0.00    0.00      -0.96   -0.08   -0.47
#  18    0.02   -1.41    0.22    0.09   -0.19    0.00    0.00      -1.27    0.22   -0.45
#  19   -0.54   -1.63    0.42    0.57   -0.19    0.00    0.00      -1.37    1.24   -0.41
#  20    4.23   -1.63    0.28   -1.86   -0.33    0.00    0.00       0.69   -3.69   -0.65
#  21   -8.07   -2.52    1.77    2.67    0.22    0.00    0.00      -5.94    5.33    0.43
#  22    1.01   -0.96    1.04    0.22   -0.16    0.00    0.00       1.14    0.37   -0.28
#  23    1.25   -0.39    0.06    0.72   -0.13    0.00    0.00       1.51    1.54   -0.28
#  24    1.01   -0.89    0.55    0.97   -0.15    0.00    0.00       1.49    1.82   -0.28
#  25    1.46   -0.76    0.31    0.78   -0.13    0.00    0.00       1.66    1.36   -0.22
#  26    3.70   -0.16    0.06    0.57    0.14    0.00    0.00       4.33    1.22    0.31
#  27   -0.07   -0.76    0.36    0.26   -0.17    0.00    0.00      -0.39    0.44   -0.28
#  28   -0.58   -0.82    0.85    0.07   -0.13    0.00    0.00      -0.61    0.16   -0.28
#  29   -0.43   -0.23    0.02    0.27   -0.07    0.00    0.00      -0.44    1.13   -0.28
#  30   -0.78   -0.23    0.03    0.15   -0.06    0.00    0.00      -0.88    0.75   -0.28
#  31   -0.15   -0.25    0.02   -0.15   -0.08    0.00    0.00      -0.61   -0.49   -0.27
@<TRIPOS>MOLECULE
E6682254
   31    33     0     0     0
SMALL
USER_CHARGES


@<TRIPOS>ATOM
      1 Cl1        16.4362   14.3521   67.6945 Cl        1            -0.0243
      2 C1         15.4598   14.9236   66.3777 C.ar      1             0.0197
      3 C2         14.0888   15.0159   66.5210 C.ar      1            -0.1181
      4 C3         13.3104   15.4708   65.4726 C.ar      1            -0.0716
      5 C4         13.8978   15.8366   64.2738 C.ar      1            -0.1212
      6 C5         15.2650   15.7497   64.1166 C.ar      1            -0.0704
      7 C6         16.0588   15.2968   65.1721 C.ar      1            -0.1285
      8 C7         17.5252   15.2075   65.0129 C.2       1             0.5616
      9 O1         18.2563   15.8438   65.7467 O.2       1            -0.4859
     10 N1         18.0523   14.4204   64.0541 N.am      1            -0.5250
     11 N2         19.4425   14.3357   63.9032 N.am      1            -0.3435
     12 C8         20.0615   13.1334   64.0331 C.2       1             0.3910
     13 N3         21.3439   12.9732   63.9081 N.2       1            -0.5035
     14 C9         22.1674   14.0157   63.6337 C.ar      1             0.1475
     15 C10        23.5467   13.8443   63.4986 C.ar      1            -0.1058
     16 C11        24.3447   14.9307   63.2194 C.ar      1            -0.0698
     17 C12        23.7953   16.1975   63.0699 C.ar      1            -0.1330
     18 C13        22.4376   16.3921   63.1989 C.ar      1            -0.0402
     19 C14        21.6121   15.3055   63.4810 C.ar      1            -0.1858
     20 C15        20.1559   15.4514   63.6238 C.2       1             0.5503
     21 O2         19.6137   16.5340   63.4998 O.2       1            -0.4946
     22 H1         13.6241   14.7317   67.4535 H         1             0.1451
     23 H2         12.2391   15.5407   65.5897 H         1             0.1420
     24 H3         13.2834   16.1908   63.4591 H         1             0.1408
     25 H4         15.7212   16.0353   63.1803 H         1             0.1356
     26 H5         17.4690   13.9126   63.4686 H         1             0.4265
     27 H6         19.4560   12.2663   64.2519 H         1             0.2018
     28 H7         23.9853   12.8640   63.6130 H         1             0.1436
     29 H8         25.4112   14.7963   63.1156 H         1             0.1383
     30 H9         24.4380   17.0373   62.8509 H         1             0.1373
     31 H10        22.0160   17.3794   63.0819 H         1             0.1402
@<TRIPOS>BOND
     1    1    2 1 
     2    2    7 ar
     3    2    3 ar
     4    3    4 ar
     5    3   22 1 
     6    4    5 ar
     7    4   23 1 
     8    5    6 ar
     9    5   24 1 
    10    6    7 ar
    11    6   25 1 
    12    7    8 1 
    13    8    9 2 
    14    8   10 am
    15   10   11 1 
    16   10   26 1 
    17   11   20 am
    18   11   12 1 
    19   12   13 2 
    20   12   27 1 
    21   13   14 1 
    22   14   19 ar
    23   14   15 ar
    24   15   16 ar
    25   15   28 1 
    26   16   17 ar
    27   16   29 1 
    28   17   18 ar
    29   17   30 1 
    30   18   19 ar
    31   18   31 1 
    32   19   20 1 
    33   20   21 2 
##########                 Name:            E23812021
##########          Protonation:                   95
##########               SMILES:   Cn1c(ccc1)C[NH+]2CC[C@@H](CC2)Cn3nnc(c3)CO
##########            Long Name:   1-methylpyrrol-2-yl)methyl]piperidin-1-ium-4-yl]methyl]triazol-4-yl]methanol
##########          FlexRecCode: 1
##########               Number:                   66
##########   Ligand Source File: /raidb/db2/rgc/leads-emolecules-300/leads-emolecules-3-as-0000004.db2.gz
##########           GlobalRank: 3786
##########                 Rank:                    1
##########               Setnum:                  230
##########             Matchnum:                 3016
##########                Cloud:                    1
##########        Electrostatic:           -28.016975
##########        Van der Waals:           -23.845774
##########  Ligand Polar Desolv:            12.146662
########## Ligand Apolar Desolv:            -0.527553
##########      Internal Energy:             0.000000
##########      Receptor Energy: 0.0
########## Receptor Desolvation:             0.000000
########## Receptor Hydrophobic:             0.000000
##########         Total Energy: -40.24
##########        Ligand Charge:             1.000000
##########            Arbitrary:    +999.9990
##########     heavy atom count:   21
##########           pose count:    1
##########        Ligand Energy:             0.000000
# num electro vdwattr vdwrepu polsolv apolsol rdesolv rhydroe totalscore fullpol fullapo
#   1   -0.55   -1.34    0.63    0.30   -0.20    0.00    0.00      -1.16    0.87   -0.58
#   2    4.12   -0.82    0.06   -2.41    0.37    0.00    0.00       1.32   -8.76    1.35
#   3   -0.11   -0.53    0.02   -0.15   -0.21    0.00    0.00      -0.97   -0.68   -0.97
#   4    0.21   -0.50    0.02   -0.73   -0.10    0.00    0.00      -1.11   -3.72   -0.51
#   5    0.69   -0.85    0.09   -0.88   -0.11    0.00    0.00      -1.06   -3.62   -0.45
#   6    0.99   -1.08    0.20   -0.05   -0.17    0.00    0.00      -0.11   -0.16   -0.59
#   7   -1.43   -1.28    0.60    0.78   -0.11    0.00    0.00      -1.44    2.16   -0.30
#   8    9.38   -1.47    0.58   -4.23    0.16    0.00    0.00       4.43  -11.12    0.43
#   9  -15.03   -0.10    0.02    5.44    0.20    0.00    0.00      -9.47   15.31    0.56
#  10    0.14   -1.15    0.21    0.04   -0.18    0.00    0.00      -0.94    0.09   -0.39
#  11    1.76   -0.87    0.09   -1.62   -0.10    0.00    0.00      -0.72   -3.49   -0.21
#  12    0.92   -0.66    0.04   -0.92   -0.06    0.00    0.00      -0.68   -2.29   -0.16
#  13   -0.17   -1.21    0.24    0.71   -0.20    0.00    0.00      -0.63    1.57   -0.44
#  14   -1.07   -1.83    0.47   -1.50    0.40    0.00    0.00      -3.52   -3.35    0.90
#  15   -0.06   -1.67    0.40   -0.02   -0.44    0.00    0.00      -1.79   -0.04   -0.94
#  16   -0.10   -1.62    0.30   -0.39   -0.46    0.00    0.00      -2.28   -0.68   -0.79
#  17    0.56   -1.47    0.23    0.90   -0.09    0.00    0.00       0.12    1.42   -0.15
#  18   -1.60   -3.07    1.48   -3.93    1.10    0.00    0.00      -6.02   -6.00    1.68
#  19   -2.40   -1.64    0.22   -0.90    0.62    0.00    0.00      -4.10   -1.74    1.20
#  20   -0.95   -2.61    1.50   -0.48    0.23    0.00    0.00      -2.31   -1.02    0.49
#  21    1.47   -0.62    0.05   -1.29   -0.07    0.00    0.00      -0.46   -3.94   -0.21
#  22    0.07   -0.64    0.08    0.18   -0.13    0.00    0.00      -0.44    0.58   -0.42
#  23   -0.43   -0.22    0.03    0.62   -0.06    0.00    0.00      -0.06    2.90   -0.28
#  24   -0.82   -0.88    0.82    0.43   -0.10    0.00    0.00      -0.56    1.16   -0.28
#  25   -1.65   -0.69    0.75    1.13   -0.07    0.00    0.00      -0.54    3.84   -0.24
#  26   -0.27   -0.11    0.00    0.21   -0.03    0.00    0.00      -0.19    2.05   -0.28
#  27    0.24   -0.09    0.00    0.08   -0.02    0.00    0.00       0.22    0.97   -0.28
#  28   -0.53   -0.26    0.05    0.77   -0.06    0.00    0.00      -0.02    3.60   -0.27
#  29   -2.44   -0.70    0.99    1.73   -0.07    0.00    0.00      -0.49    5.90   -0.24
#  30   -4.29   -0.62    0.39    2.04   -0.06    0.00    0.00      -2.54    5.47   -0.15
#  31   -3.75   -0.59    0.38    1.43   -0.09    0.00    0.00      -2.62    3.53   -0.22
#  32   -3.12   -0.46    0.11    1.86   -0.12    0.00    0.00      -1.73    4.43   -0.28
#  33   -1.28   -0.45    0.13    1.23   -0.07    0.00    0.00      -0.44    3.58   -0.20
#  34   -1.01   -0.33    0.10    0.84   -0.09    0.00    0.00      -0.48    2.58   -0.28
#  35   -0.87   -0.24    0.06    0.29   -0.06    0.00    0.00      -0.82    1.41   -0.28
#  36   -0.14   -0.47    0.12    1.56   -0.10    0.00    0.00       0.96    4.18   -0.28
#  37   -0.13   -0.65    0.39    0.95   -0.13    0.00    0.00       0.43    2.04   -0.28
#  38    0.16   -0.30    0.04    1.20   -0.09    0.00    0.00       1.01    3.64   -0.28
#  39    0.33   -0.56    0.13    0.23   -0.16    0.00    0.00      -0.03    0.40   -0.28
#  40    0.17   -0.53    0.15    0.36   -0.15    0.00    0.00      -0.01    0.67   -0.28
#  41    0.76   -0.09    0.02    3.52    0.74    0.00    0.00       4.94    5.88    1.24
#  42   -0.83   -0.29    0.04    0.99   -0.05    0.00    0.00      -0.15    3.87   -0.21
#  43   -0.89   -0.21    0.04    0.12   -0.04    0.00    0.00      -0.98    0.77   -0.27
#  44   -2.29   -0.25    0.04    1.01   -0.07    0.00    0.00      -1.56    4.19   -0.28
#  45   -1.78   -0.14    0.01    0.72   -0.03    0.00    0.00      -1.22    5.79   -0.28
@<TRIPOS>MOLECULE
E23812021
   45    47     0     0     0
SMALL
USER_CHARGES


@<TRIPOS>ATOM
      1 C1         24.1436   23.4052   59.1031 C.3       1             0.0551
      2 N1         24.9833   22.8511   60.1681 N.pl3     1            -0.4424
      3 C2         26.2428   23.2668   60.4840 C.2       1             0.0346
      4 C3         26.6874   22.5192   61.5146 C.2       1            -0.1980
      5 C4         25.6649   21.6088   61.8470 C.2       1            -0.1375
      6 C5         24.6322   21.8385   61.0108 C.2       1            -0.0783
      7 C6         23.3182   21.1005   61.0060 C.3       1             0.0671
      8 N2         23.4127   19.9380   60.1130 N.4       1            -0.3825
      9 H1         23.6272   20.2502   59.1779 H         1             0.4226
     10 C7         22.1313   19.2224   60.1066 C.3       1            -0.0062
     11 C8         21.7627   18.8157   61.5350 C.3       1            -0.1400
     12 C9         22.8559   17.9032   62.0983 C.3       1            -0.1152
     13 C10        22.5336   17.5568   63.5533 C.3       1             0.1215
     14 N3         21.5336   16.4869   63.5906 N.pl3     1            -0.3021
     15 C11        21.7935   15.1593   63.6159 C.2       1            -0.0227
     16 C12        20.5903   14.5400   63.6462 C.2       1            -0.0210
     17 C13        20.3415   13.0542   63.6824 C.3       1             0.1614
     18 O1         20.2443   12.5548   62.3471 O.3       1            -0.5749
     19 N4         19.6653   15.5064   63.6382 N.2       1            -0.2512
     20 N5         20.2567   16.6485   63.6107 N.2       1            -0.0824
     21 C14        24.2006   18.6327   62.0313 C.3       1            -0.1462
     22 C15        24.4777   19.0454   60.5856 C.3       1            -0.0041
     23 H2         24.6832   24.2031   58.5929 H         1             0.0798
     24 H3         23.8967   22.6194   58.3891 H         1             0.1005
     25 H4         23.2261   23.8053   59.5348 H         1             0.0837
     26 H5         26.7902   24.0579   59.9932 H         1             0.1762
     27 H6         27.6503   22.6031   61.9965 H         1             0.1504
     28 H7         25.6999   20.8665   62.6307 H         1             0.1461
     29 H8         23.0866   20.7646   62.0168 H         1             0.1304
     30 H9         22.5293   21.7657   60.6545 H         1             0.1499
     31 H10        21.3548   19.8719   59.7024 H         1             0.1381
     32 H11        22.2169   18.3304   59.4860 H         1             0.1319
     33 H12        21.6766   19.7071   62.1564 H         1             0.0947
     34 H13        20.8118   18.2830   61.5277 H         1             0.1207
     35 H14        22.9066   16.9881   61.5084 H         1             0.1116
     36 H15        23.4411   17.2235   64.0570 H         1             0.1119
     37 H16        22.1409   18.4391   64.0585 H         1             0.1115
     38 H17        22.7653   14.6883   63.6121 H         1             0.1962
     39 H18        21.1663   12.5600   64.1960 H         1             0.0729
     40 H19        19.4110   12.8544   64.2137 H         1             0.0713
     41 H20        21.0387   12.6981   61.8148 H         1             0.3966
     42 H21        24.1652   19.5203   62.6630 H         1             0.0923
     43 H22        24.9924   17.9693   62.3790 H         1             0.1090
     44 H23        24.5133   18.1571   59.9548 H         1             0.1345
     45 H24        25.4351   19.5641   60.5353 H         1             0.1320
@<TRIPOS>BOND
     1    1    2 1 
     2    1   23 1 
     3    1   24 1 
     4    1   25 1 
     5    2    6 1 
     6    2    3 1 
     7    3    4 2 
     8    3   26 1 
     9    4    5 1 
    10    4   27 1 
    11    5    6 2 
    12    5   28 1 
    13    6    7 1 
    14    7    8 1 
    15    7   29 1 
    16    7   30 1 
    17    8    9 1 
    18    8   22 1 
    19    8   10 1 
    20   10   11 1 
    21   10   31 1 
    22   10   32 1 
    23   11   12 1 
    24   11   33 1 
    25   11   34 1 
    26   12   13 1 
    27   12   21 1 
    28   12   35 1 
    29   13   14 1 
    30   13   36 1 
    31   13   37 1 
    32   14   20 1 
    33   14   15 1 
    34   15   16 2 
    35   15   38 1 
    36   16   17 1 
    37   16   19 1 
    38   17   18 1 
    39   17   39 1 
    40   17   40 1 
    41   18   41 1 
    42   19   20 2 
    43   21   22 1 
    44   21   42 1 
    45   21   43 1 
    46   22   44 1 
    47   22   45 1 
##########                 Name:            E43132762
##########          Protonation:                  100
##########               SMILES:   COc1ccc(cc1c2cc3ccccc3o2)CC[NH3+]
##########            Long Name:   2-[3-(benzofuran-2-yl)-4-methoxy-phenyl]ethylammonium
##########          FlexRecCode: 1
##########               Number:                  665
##########   Ligand Source File: /raidb/db2/rgc/leads-emolecules-300/leads-emolecules-lt300-1e-0000011.db2.gz
##########           GlobalRank: 3803
##########                 Rank:                    1
##########               Setnum:                   20
##########             Matchnum:                 2233
##########                Cloud:                    1
##########        Electrostatic:           -22.536629
##########        Van der Waals:           -23.300522
##########  Ligand Polar Desolv:             9.551247
########## Ligand Apolar Desolv:            -3.946437
##########      Internal Energy:             0.000000
##########      Receptor Energy: 0.0
########## Receptor Desolvation:             0.000000
########## Receptor Hydrophobic:             0.000000
##########         Total Energy: -40.23
##########        Ligand Charge:             1.000000
##########            Arbitrary:    +999.9990
##########     heavy atom count:   20
##########           pose count:    1
##########        Ligand Energy:             0.000000
# num electro vdwattr vdwrepu polsolv apolsol rdesolv rhydroe totalscore fullpol fullapo
#   1    0.04   -2.54    1.05    0.09    0.02    0.00    0.00      -1.34    0.13    0.03
#   2   -1.03   -1.94    0.32   -0.85    0.55    0.00    0.00      -2.95   -1.33    0.86
#   3    0.67   -1.74    0.36    0.21   -0.18    0.00    0.00      -0.67    0.36   -0.31
#   4   -0.20   -2.00    0.77   -1.42   -0.21    0.00    0.00      -3.06   -2.80   -0.42
#   5    0.07   -1.59    0.60   -0.34   -0.19    0.00    0.00      -1.44   -0.82   -0.45
#   6    0.15   -1.36    0.26   -0.78   -0.15    0.00    0.00      -1.88   -1.89   -0.36
#   7    0.60   -0.70    0.04   -1.23   -0.10    0.00    0.00      -1.39   -3.12   -0.25
#   8    0.12   -0.76    0.10    0.28   -0.19    0.00    0.00      -0.45    0.73   -0.48
#   9   12.01   -0.92    0.11   -8.92    0.31    0.00    0.00       2.59  -24.51    0.86
#  10  -12.10   -0.04    0.00    6.24    0.19    0.00    0.00      -5.69   19.29    0.60
#  11   -8.25   -0.02    0.00    4.24    0.13    0.00    0.00      -3.90   18.98    0.58
#  12   -6.51   -0.01    0.00    2.55    0.08    0.00    0.00      -3.89   19.28    0.58
#  13   -0.21   -1.78    0.46   -0.29   -0.19    0.00    0.00      -2.01   -0.65   -0.43
#  14   -0.39   -1.61    0.28   -0.63   -0.20    0.00    0.00      -2.55   -1.23   -0.40
#  15    0.85   -1.77    0.26    0.15   -0.16    0.00    0.00      -0.67    0.27   -0.29
#  16   -1.84   -2.10    0.39   -0.64   -0.31    0.00    0.00      -4.49   -1.06   -0.51
#  17   -1.63   -2.39    0.72   -0.28   -0.28    0.00    0.00      -3.87   -0.44   -0.44
#  18   -0.65   -2.78    0.97   -0.28   -0.31    0.00    0.00      -3.05   -0.43   -0.47
#  19   -1.45   -2.64    1.48   -0.48   -0.30    0.00    0.00      -3.39   -0.76   -0.47
#  20   -0.96   -3.01    1.54   -0.27   -0.28    0.00    0.00      -2.99   -0.46   -0.47
#  21   -1.14   -4.34    3.13   -0.21   -0.29    0.00    0.00      -2.85   -0.34   -0.48
#  22    0.85   -2.81    0.90   -0.10   -0.20    0.00    0.00      -1.37   -0.17   -0.34
#  23   -2.49   -2.18    0.57   -0.03    0.18    0.00    0.00      -3.94   -0.06    0.32
#  24   -0.27   -1.65    3.40    0.53   -0.18    0.00    0.00       1.82    0.77   -0.27
#  25    0.26   -0.82    0.60    0.43   -0.16    0.00    0.00       0.32    0.71   -0.26
#  26    0.32   -1.01    0.79    0.38   -0.18    0.00    0.00       0.29    0.58   -0.28
#  27   -0.04   -0.52    0.15    0.78   -0.10    0.00    0.00       0.28    1.70   -0.22
#  28   -0.45   -0.22    0.02    1.14   -0.07    0.00    0.00       0.43    4.66   -0.28
#  29   -0.59   -0.28    0.02    1.36   -0.10    0.00    0.00       0.41    3.95   -0.28
#  30   -0.63   -0.22    0.02    0.93   -0.06    0.00    0.00       0.04    4.46   -0.28
#  31   -1.64   -0.37    0.16    1.28   -0.08    0.00    0.00      -0.64    4.58   -0.28
#  32   -1.87   -0.26    0.03    1.23   -0.09    0.00    0.00      -0.96    3.97   -0.28
#  33    1.56   -0.72    1.03    1.21   -0.10    0.00    0.00       2.98    3.40   -0.28
#  34    1.15   -0.58    0.25    0.97   -0.14    0.00    0.00       1.65    1.93   -0.28
#  35    0.51   -0.60    0.11    0.73   -0.16    0.00    0.00       0.58    1.25   -0.28
#  36    1.24   -0.42    0.07    0.68   -0.14    0.00    0.00       1.43    1.39   -0.28
#  37    1.24   -0.56    0.15    0.63   -0.14    0.00    0.00       1.32    1.29   -0.28
#  38    0.16   -2.23    7.01    0.28   -0.18    0.00    0.00       5.05    0.44   -0.28
@<TRIPOS>MOLECULE
E43132762
   38    40     0     0     0
SMALL
USER_CHARGES


@<TRIPOS>ATOM
      1 C1         19.7359   12.2172   62.9636 C.3       1             0.0213
      2 O1         20.3564   12.9733   64.0054 O.3       1            -0.2991
      3 C2         20.9889   14.1193   63.6430 C.ar      1             0.1734
      4 C3         22.3285   14.0927   63.2907 C.ar      1            -0.2061
      5 C4         22.9712   15.2594   62.9215 C.ar      1            -0.0524
      6 C5         22.2834   16.4604   62.9010 C.ar      1            -0.1519
      7 C6         22.9949   17.7259   62.4966 C.3       1            -0.0952
      8 C7         22.8698   17.9205   60.9842 C.3       1            -0.0091
      9 N1         23.5633   19.1539   60.5901 N.4       1            -0.6384
     10 H1         23.4808   19.2822   59.5928 H         1             0.4393
     11 H2         23.1473   19.9404   61.0661 H         1             0.4357
     12 H3         24.5383   19.0864   60.8411 H         1             0.4354
     13 C8         20.9491   16.5037   63.2485 C.ar      1            -0.0403
     14 C9         20.2882   15.3314   63.6183 C.ar      1            -0.0567
     15 C10        18.8580   15.3700   63.9862 C.2       1             0.0737
     16 C11        18.3534   15.0063   65.1899 C.2       1            -0.1832
     17 C12        16.9053   15.2081   65.1007 C.ar      1            -0.1341
     18 C13        15.8407   15.0230   65.9840 C.ar      1            -0.0699
     19 C14        14.5673   15.3144   65.5807 C.ar      1            -0.1323
     20 C15        14.3279   15.7925   64.3004 C.ar      1            -0.0866
     21 C16        15.3668   15.9814   63.4135 C.ar      1            -0.1080
     22 C17        16.6687   15.6923   63.8019 C.ar      1             0.0580
     23 O2         17.8606   15.7774   63.1767 O.3       1            -0.1797
     24 H4         19.2684   11.3288   63.3882 H         1             0.0620
     25 H5         18.9775   12.8279   62.4736 H         1             0.0625
     26 H6         20.4885   11.9182   62.2340 H         1             0.1099
     27 H7         22.8714   13.1592   63.3049 H         1             0.1420
     28 H8         24.0156   15.2338   62.6480 H         1             0.1327
     29 H9         22.5455   18.5755   63.0106 H         1             0.0969
     30 H10        24.0481   17.6529   62.7677 H         1             0.0972
     31 H11        23.3192   17.0708   60.4701 H         1             0.1354
     32 H12        21.8166   17.9934   60.7132 H         1             0.1355
     33 H13        20.4158   17.4426   63.2308 H         1             0.1386
     34 H14        18.9069   14.6414   66.0424 H         1             0.1584
     35 H15        16.0219   14.6508   66.9815 H         1             0.1292
     36 H16        13.7423   15.1713   66.2630 H         1             0.1332
     37 H17        13.3170   16.0187   63.9949 H         1             0.1389
     38 H18        15.1687   16.3540   62.4194 H         1             0.1338
@<TRIPOS>BOND
     1    1    2 1 
     2    1   24 1 
     3    1   25 1 
     4    1   26 1 
     5    2    3 1 
     6    3   14 ar
     7    3    4 ar
     8    4    5 ar
     9    4   27 1 
    10    5    6 ar
    11    5   28 1 
    12    6    7 1 
    13    6   13 ar
    14    7    8 1 
    15    7   29 1 
    16    7   30 1 
    17    8    9 1 
    18    8   31 1 
    19    8   32 1 
    20    9   10 1 
    21    9   11 1 
    22    9   12 1 
    23   13   14 ar
    24   13   33 1 
    25   14   15 1 
    26   15   23 1 
    27   15   16 2 
    28   16   17 1 
    29   16   34 1 
    30   17   22 ar
    31   17   18 ar
    32   18   19 ar
    33   18   35 1 
    34   19   20 ar
    35   19   36 1 
    36   20   21 ar
    37   20   37 1 
    38   21   22 ar
    39   21   38 1 
    40   22   23 1 
##########                 Name:            E24135491
##########          Protonation:                   79
##########               SMILES:   CC(=C)CSCc1nc(nc(n1)Nc2ccccc2)N
##########            Long Name:   6-(2-methylallylsulfanylmethyl)-N4-phenyl-1,3,5-triazine-2,4-diamine
##########          FlexRecCode: 1
##########               Number:                  136
##########   Ligand Source File: /raidb/db2/rgc/leads-emolecules-300/leads-emolecules-2c-0000093.db2.gz
##########           GlobalRank: 3818
##########                 Rank:                    1
##########               Setnum:                  175
##########             Matchnum:                 2955
##########                Cloud:                    1
##########        Electrostatic:            -5.446034
##########        Van der Waals:           -33.455425
##########  Ligand Polar Desolv:             4.139265
########## Ligand Apolar Desolv:            -5.459160
##########      Internal Energy:             0.000000
##########      Receptor Energy: 0.0
########## Receptor Desolvation:             0.000000
########## Receptor Hydrophobic:             0.000000
##########         Total Energy: -40.22
##########        Ligand Charge:             0.000000
##########            Arbitrary:    +999.9990
##########     heavy atom count:   20
##########           pose count:    1
##########        Ligand Energy:             0.000000
# num electro vdwattr vdwrepu polsolv apolsol rdesolv rhydroe totalscore fullpol fullapo
#   1    1.93   -0.59    0.05    0.01   -0.06    0.00    0.00       1.33    0.02   -0.20
#   2    1.86   -1.07    0.07    0.02   -0.15    0.00    0.00       0.74    0.04   -0.37
#   3    3.23   -1.49    0.18   -0.03   -0.15    0.00    0.00       1.73   -0.07   -0.33
#   4    0.53   -1.09    0.51    0.00   -0.05    0.00    0.00      -0.10   -0.01   -0.13
#   5    0.85   -1.87    0.25    0.32   -0.29    0.00    0.00      -0.74    0.86   -0.78
#   6   -0.05   -1.64    0.77    0.00   -0.06    0.00    0.00      -0.98    0.01   -0.13
#   7    2.83   -2.28    1.18   -0.95   -0.90    0.00    0.00      -0.12   -2.07   -1.95
#   8   -2.63   -1.78    0.38    1.67    1.06    0.00    0.00      -1.29    3.21    2.03
#   9    2.97   -1.80    0.30   -1.59   -2.99    0.00    0.00      -3.12   -2.65   -4.98
#  10   -2.99   -3.01    0.79    0.01    0.62    0.00    0.00      -4.60    0.01    0.95
#  11   -4.35   -1.89    0.36    2.07    0.90    0.00    0.00      -2.91    3.50    1.52
#  12    7.91   -1.84    0.30   -1.88   -2.59    0.00    0.00       1.91   -3.37   -4.65
#  13  -10.36   -2.33    0.48    1.20    0.63    0.00    0.00     -10.38    2.04    1.06
#  14    2.24   -2.36    0.59   -0.25   -0.42    0.00    0.00      -0.20   -0.39   -0.67
#  15   -1.60   -2.59    0.79    0.29   -0.25    0.00    0.00      -3.35    0.47   -0.40
#  16   -1.15   -2.41    0.58    0.09   -0.31    0.00    0.00      -3.20    0.14   -0.47
#  17   -0.75   -3.60    1.19   -0.03   -0.31    0.00    0.00      -3.50   -0.04   -0.47
#  18   -0.18   -3.98    1.48   -0.03   -0.32    0.00    0.00      -3.03   -0.05   -0.47
#  19   -1.08   -2.64    0.59    0.07   -0.30    0.00    0.00      -3.36    0.11   -0.46
#  20   -9.16   -2.94    1.98    1.79    1.01    0.00    0.00      -7.32    3.59    2.03
#  21   -0.81   -0.12    0.00    0.01   -0.03    0.00    0.00      -0.95    0.08   -0.28
#  22   -1.64   -0.35    0.20   -0.02   -0.06    0.00    0.00      -1.87   -0.08   -0.28
#  23   -0.85   -0.18    0.01    0.00   -0.05    0.00    0.00      -1.06   -0.01   -0.28
#  24   -2.64   -0.39    0.08    0.05   -0.10    0.00    0.00      -3.00    0.13   -0.28
#  25   -1.63   -0.30    0.03    0.06   -0.10    0.00    0.00      -1.94    0.15   -0.27
#  26   -0.69   -0.45    0.36    0.06   -0.09    0.00    0.00      -0.81    0.18   -0.28
#  27   -1.00   -0.65    0.73    0.06   -0.09    0.00    0.00      -0.95    0.20   -0.27
#  28    0.34   -1.11    1.27    0.00   -0.14    0.00    0.00       0.37    0.01   -0.28
#  29    0.00   -0.51    0.23    0.01   -0.11    0.00    0.00      -0.37    0.02   -0.28
#  30    2.51   -0.06    0.00    0.49    0.34    0.00    0.00       3.29    0.86    0.59
#  31    0.01   -0.07    0.00    0.48    0.37    0.00    0.00       0.79    0.76    0.59
#  32    7.33   -0.05    0.00   -0.30    0.31    0.00    0.00       7.30   -0.57    0.59
#  33    1.70   -0.67    0.32   -0.29   -0.12    0.00    0.00       0.95   -0.54   -0.23
#  34    1.37   -0.38    0.04    0.05   -0.15    0.00    0.00       0.93    0.09   -0.28
#  35    0.39   -1.25    1.17    0.26   -0.17    0.00    0.00       0.40    0.42   -0.28
#  36   -0.67   -1.21    0.56    0.34   -0.19    0.00    0.00      -1.17    0.51   -0.28
#  37    0.79   -0.49    0.09    0.10   -0.15    0.00    0.00       0.35    0.20   -0.28
@<TRIPOS>MOLECULE
E24135491
   37    38     0     0     0
SMALL
USER_CHARGES


@<TRIPOS>ATOM
      1 C1         24.2358   19.2748   60.8865 C.3       1            -0.1215
      2 C2         22.8533   18.6755   60.9104 C.2       1            -0.1168
      3 C3         21.8037   19.4428   60.7502 C.2       1            -0.1660
      4 C4         22.6781   17.1932   61.1187 C.3       1            -0.0541
      5 S1         23.3889   16.7193   62.7189 S.3       1            -0.2082
      6 C5         22.1121   17.1835   63.9209 C.3       1            -0.0310
      7 C6         21.0405   16.1241   63.9496 C.ar      1             0.4499
      8 N1         21.3775   14.8465   63.9852 N.ar      1            -0.6193
      9 C7         20.4339   13.9082   64.0111 C.ar      1             0.6310
     10 N2         20.7867   12.5746   64.0487 N.pl3     1            -0.8018
     11 N3         19.1520   14.2571   64.0010 N.ar      1            -0.6366
     12 C8         18.8173   15.5422   63.9653 C.ar      1             0.6299
     13 N4         17.4858   15.9101   63.9546 N.pl3     1            -0.6264
     14 C9         16.6503   15.5420   65.0137 C.ar      1             0.1576
     15 C10        15.3099   15.9063   65.0017 C.ar      1            -0.1083
     16 C11        14.4874   15.5412   66.0493 C.ar      1            -0.1017
     17 C12        14.9969   14.8142   67.1095 C.ar      1            -0.1329
     18 C13        16.3308   14.4499   67.1246 C.ar      1            -0.1001
     19 C14        17.1574   14.8065   66.0771 C.ar      1            -0.1424
     20 N5         19.7667   16.4753   63.9446 N.ar      1            -0.6178
     21 H1         24.9755   18.4880   61.0353 H         1             0.0691
     22 H2         24.4063   19.7566   59.9238 H         1             0.0699
     23 H3         24.3254   20.0132   61.6833 H         1             0.0662
     24 H4         21.9292   20.5051   60.6011 H         1             0.1057
     25 H5         20.8129   19.0133   60.7673 H         1             0.1015
     26 H6         21.6162   16.9474   61.1057 H         1             0.0922
     27 H7         23.1862   16.6516   60.3208 H         1             0.0895
     28 H8         22.5601   17.2738   64.9104 H         1             0.1134
     29 H9         21.6717   18.1380   63.6329 H         1             0.1134
     30 H10        21.7229   12.3205   64.0563 H         1             0.4202
     31 H11        20.0986   11.8911   64.0676 H         1             0.4185
     32 H12        17.1305   16.4236   63.2124 H         1             0.4275
     33 H13        14.9116   16.4747   64.1744 H         1             0.1282
     34 H14        13.4451   15.8241   66.0406 H         1             0.1249
     35 H15        14.3517   14.5305   67.9279 H         1             0.1236
     36 H16        16.7257   13.8824   67.9543 H         1             0.1270
     37 H17        18.1981   14.5179   66.0873 H         1             0.1256
@<TRIPOS>BOND
     1    1    2 1 
     2    1   21 1 
     3    1   22 1 
     4    1   23 1 
     5    2    3 2 
     6    2    4 1 
     7    3   24 1 
     8    3   25 1 
     9    4    5 1 
    10    4   26 1 
    11    4   27 1 
    12    5    6 1 
    13    6    7 1 
    14    6   28 1 
    15    6   29 1 
    16    7   20 ar
    17    7    8 ar
    18    8    9 ar
    19    9   10 1 
    20    9   11 ar
    21   10   30 1 
    22   10   31 1 
    23   11   12 ar
    24   12   13 1 
    25   12   20 ar
    26   13   14 1 
    27   13   32 1 
    28   14   19 ar
    29   14   15 ar
    30   15   16 ar
    31   15   33 1 
    32   16   17 ar
    33   16   34 1 
    34   17   18 ar
    35   17   35 1 
    36   18   19 ar
    37   18   36 1 
    38   19   37 1 
##########                 Name:             E2013029
##########          Protonation:                  100
##########               SMILES:   Cc1ccc(cc1)NC(=O)c2cc3ccccc3cc2OC
##########            Long Name:   3-methoxy-N-(p-tolyl)naphthalene-2-carboxamide
##########          FlexRecCode: 1
##########               Number:                  146
##########   Ligand Source File: /raidb/db2/rgc/leads-emolecules-300/leads-emolecules-2e-0000111.db2.gz
##########           GlobalRank: 3831
##########                 Rank:                    1
##########               Setnum:                    3
##########             Matchnum:                  158
##########                Cloud:                    1
##########        Electrostatic:            -8.485263
##########        Van der Waals:           -33.289471
##########  Ligand Polar Desolv:             6.408916
########## Ligand Apolar Desolv:            -4.848942
##########      Internal Energy:             0.000000
##########      Receptor Energy: 0.0
########## Receptor Desolvation:             0.000000
########## Receptor Hydrophobic:             0.000000
##########         Total Energy: -40.21
##########        Ligand Charge:             0.000000
##########            Arbitrary:    +999.9990
##########     heavy atom count:   22
##########           pose count:    1
##########        Ligand Energy:             0.000000
# num electro vdwattr vdwrepu polsolv apolsol rdesolv rhydroe totalscore fullpol fullapo
#   1    0.04   -2.37    1.05   -0.02    0.02    0.00    0.00      -1.28   -0.03    0.03
#   2   -0.99   -2.03    0.48    1.53    0.23    0.00    0.00      -0.77    2.42    0.37
#   3    0.78   -1.77    0.31   -0.47   -0.18    0.00    0.00      -1.34   -0.80   -0.31
#   4   -1.09   -1.83    0.52    0.41   -0.20    0.00    0.00      -2.18    0.83   -0.41
#   5   -0.11   -2.03    0.75    0.00   -0.19    0.00    0.00      -1.59    0.00   -0.43
#   6    0.04   -1.44    0.22    0.02   -0.17    0.00    0.00      -1.33    0.05   -0.40
#   7    0.39   -1.31    0.15   -0.09   -0.18    0.00    0.00      -1.04   -0.23   -0.46
#   8    0.84   -1.36    0.40   -0.12   -0.15    0.00    0.00      -0.39   -0.40   -0.47
#   9    0.40   -1.11    0.15   -0.06   -0.15    0.00    0.00      -0.78   -0.18   -0.47
#  10    0.41   -1.42    0.22   -0.01   -0.19    0.00    0.00      -1.00   -0.02   -0.46
#  11   -0.01   -1.62    0.36    0.02   -0.18    0.00    0.00      -1.42    0.04   -0.40
#  12   -0.39   -2.03    0.51    0.35   -0.21    0.00    0.00      -1.76    0.67   -0.40
#  13    7.02   -1.97    0.45   -1.95   -0.36    0.00    0.00       3.19   -3.49   -0.64
#  14  -11.07   -3.32    3.70    3.56   -0.13    0.00    0.00      -7.26    6.37   -0.23
#  15   -6.03   -2.10    0.37    0.91    0.98    0.00    0.00      -5.88    1.52    1.64
#  16    1.39   -2.43    0.64   -0.29   -0.44    0.00    0.00      -1.13   -0.45   -0.68
#  17   -0.55   -3.39    1.09    0.07   -0.30    0.00    0.00      -3.09    0.10   -0.46
#  18   -0.53   -3.60    1.18    0.04   -0.29    0.00    0.00      -3.21    0.06   -0.45
#  19   -1.05   -2.48    0.64    0.16   -0.27    0.00    0.00      -3.00    0.25   -0.41
#  20   -1.11   -1.88    0.71   -0.04   -0.13    0.00    0.00      -2.46   -0.06   -0.20
#  21   -1.37   -2.59    0.98    0.36   -0.28    0.00    0.00      -2.88    0.59   -0.45
#  22   -1.65   -2.61    0.92    0.62   -0.24    0.00    0.00      -2.95    1.03   -0.40
#  23   -0.18   -1.53    2.53   -0.01   -0.18    0.00    0.00       0.63   -0.01   -0.27
#  24    0.50   -0.78    0.65   -0.07   -0.16    0.00    0.00       0.14   -0.13   -0.28
#  25    0.15   -0.81    0.39   -0.01   -0.17    0.00    0.00      -0.45   -0.02   -0.27
#  26    1.02   -0.63    0.48    0.37   -0.08    0.00    0.00       1.16    1.02   -0.21
#  27   -0.81   -0.25    0.02    0.34   -0.09    0.00    0.00      -0.80    1.07   -0.28
#  28   -1.04   -0.26    0.10    0.15   -0.05    0.00    0.00      -1.10    0.87   -0.28
#  29   -0.49   -0.14    0.01    0.10   -0.04    0.00    0.00      -0.56    0.68   -0.28
#  30   -0.69   -0.38    0.15    0.09   -0.09    0.00    0.00      -0.92    0.28   -0.28
#  31    0.24   -0.58    0.17   -0.06   -0.10    0.00    0.00      -0.33   -0.12   -0.21
#  32    2.23   -0.04    0.00    0.51    0.21    0.00    0.00       2.91    1.11    0.45
#  33   -0.12   -0.91    0.29    0.32   -0.18    0.00    0.00      -0.59    0.50   -0.28
#  34    0.00   -1.36    1.77    0.28   -0.18    0.00    0.00       0.50    0.43   -0.28
#  35    0.69   -0.44    0.10    0.04   -0.15    0.00    0.00       0.23    0.07   -0.28
#  36    0.52   -0.68    0.34    0.02   -0.15    0.00    0.00       0.04    0.04   -0.28
#  37    0.71   -1.05    1.25    0.12   -0.17    0.00    0.00       0.86    0.20   -0.28
#  38    1.34   -0.57    0.18   -0.25   -0.14    0.00    0.00       0.56   -0.50   -0.28
#  39    2.09   -0.50    0.09   -0.53   -0.11    0.00    0.00       1.04   -1.01   -0.22
@<TRIPOS>MOLECULE
E2013029
   39    41     0     0     0
SMALL
USER_CHARGES


@<TRIPOS>ATOM
      1 C1         19.5081   12.4423   63.1645 C.3       1             0.0203
      2 O1         20.2147   13.0539   64.2456 O.3       1            -0.2830
      3 C2         21.0146   14.1074   63.9413 C.ar      1             0.1831
      4 C3         20.4858   15.4156   63.9658 C.ar      1            -0.1529
      5 C4         21.2876   16.5025   63.6580 C.ar      1            -0.0242
      6 C5         22.6331   16.2951   63.3210 C.ar      1            -0.0950
      7 C6         23.4764   17.3758   63.0034 C.ar      1            -0.0854
      8 C7         24.7774   17.1427   62.6808 C.ar      1            -0.1307
      9 C8         25.2903   15.8467   62.6598 C.ar      1            -0.0909
     10 C9         24.5050   14.7768   62.9612 C.ar      1            -0.1252
     11 C10        23.1552   14.9762   63.2996 C.ar      1             0.0107
     12 C11        22.3221   13.8913   63.6204 C.ar      1            -0.2218
     13 C12        19.0693   15.6272   64.3212 C.2       1             0.5587
     14 O2         18.4591   16.5690   63.8529 O.2       1            -0.4914
     15 N1         18.4519   14.7765   65.1647 N.am      1            -0.6735
     16 C13        17.1094   14.9769   65.5014 C.ar      1             0.1385
     17 C14        16.6365   14.5773   66.7447 C.ar      1            -0.1407
     18 C15        15.3102   14.7767   67.0740 C.ar      1            -0.1029
     19 C16        14.4531   15.3730   66.1673 C.ar      1            -0.1002
     20 C17        13.0064   15.5890   66.5301 C.3       1            -0.1142
     21 C18        14.9207   15.7720   64.9286 C.ar      1            -0.1027
     22 C19        16.2474   15.5811   64.5953 C.ar      1            -0.1149
     23 H1         18.9077   11.6157   63.5443 H         1             0.0575
     24 H2         18.8565   13.1784   62.6937 H         1             0.1045
     25 H3         20.2211   12.0662   62.4308 H         1             0.0574
     26 H4         20.8797   17.5023   63.6770 H         1             0.1394
     27 H5         23.0927   18.3852   63.0153 H         1             0.1307
     28 H6         25.4223   17.9741   62.4372 H         1             0.1268
     29 H7         26.3267   15.6891   62.3999 H         1             0.1266
     30 H8         24.9170   13.7786   62.9400 H         1             0.1294
     31 H9         22.7163   12.8859   63.6091 H         1             0.1403
     32 H10        18.9386   14.0252   65.5382 H         1             0.4074
     33 H11        17.3052   14.1110   67.4531 H         1             0.1250
     34 H12        14.9419   14.4662   68.0407 H         1             0.1259
     35 H13        12.4907   16.0675   65.6977 H         1             0.0700
     36 H14        12.5381   14.6281   66.7437 H         1             0.0662
     37 H15        12.9443   16.2274   67.4114 H         1             0.0658
     38 H16        14.2487   16.2370   64.2226 H         1             0.1254
     39 H17        16.6130   15.8973   63.6295 H         1             0.1397
@<TRIPOS>BOND
     1    1    2 1 
     2    1   23 1 
     3    1   24 1 
     4    1   25 1 
     5    2    3 1 
     6    3   12 ar
     7    3    4 ar
     8    4    5 ar
     9    4   13 1 
    10    5    6 ar
    11    5   26 1 
    12    6   11 ar
    13    6    7 ar
    14    7    8 ar
    15    7   27 1 
    16    8    9 ar
    17    8   28 1 
    18    9   10 ar
    19    9   29 1 
    20   10   11 ar
    21   10   30 1 
    22   11   12 ar
    23   12   31 1 
    24   13   14 2 
    25   13   15 am
    26   15   16 1 
    27   15   32 1 
    28   16   22 ar
    29   16   17 ar
    30   17   18 ar
    31   17   33 1 
    32   18   19 ar
    33   18   34 1 
    34   19   20 1 
    35   19   21 ar
    36   20   35 1 
    37   20   36 1 
    38   20   37 1 
    39   21   22 ar
    40   21   38 1 
    41   22   39 1 
##########                 Name:            E46625293
##########          Protonation:                   36
##########               SMILES:   CCCCSc1nc(cc(n1)N[C@H]2CC[C@H](C2)[NH3+])N
##########            Long Name:   1R,3S)-3-[(6-amino-2-butylsulfanyl-pyrimidin-4-yl)amino]cyclopentyl]ammonium
##########          FlexRecCode: 1
##########               Number:                  258
##########   Ligand Source File: /raidb/db2/rgc/leads-emolecules-300/2-leads-lt300-emolecules-1-0000017.db2.gz
##########           GlobalRank: 3854
##########                 Rank:                    1
##########               Setnum:                  321
##########             Matchnum:                 4542
##########                Cloud:                    1
##########        Electrostatic:           -30.764095
##########        Van der Waals:           -20.155828
##########  Ligand Polar Desolv:            12.931219
########## Ligand Apolar Desolv:            -2.212739
##########      Internal Energy:             0.000000
##########      Receptor Energy: 0.0
########## Receptor Desolvation:             0.000000
########## Receptor Hydrophobic:             0.000000
##########         Total Energy: -40.2
##########        Ligand Charge:             1.000000
##########            Arbitrary:    +999.9990
##########     heavy atom count:   19
##########           pose count:    1
##########        Ligand Energy:             0.000000
# num electro vdwattr vdwrepu polsolv apolsol rdesolv rhydroe totalscore fullpol fullapo
#   1   -1.22   -2.12    0.80   -0.57   -0.12    0.00    0.00      -3.24   -0.87   -0.19
#   2   -0.64   -2.43    0.81   -0.42   -0.16    0.00    0.00      -2.85   -0.65   -0.25
#   3   -1.52   -2.14    1.28   -0.35   -0.15    0.00    0.00      -2.89   -0.53   -0.22
#   4   -1.33   -1.91    1.11   -0.16   -0.06    0.00    0.00      -2.34   -0.26   -0.10
#   5    0.01   -5.49    3.30   -0.15   -0.47    0.00    0.00      -2.81   -0.26   -0.79
#   6    5.46   -2.06    0.47    0.35   -1.14    0.00    0.00       3.08    0.63   -2.02
#   7   -4.95   -2.27    0.88   -1.03    1.11    0.00    0.00      -6.26   -1.75    1.88
#   8    2.38   -1.84    0.29    1.40   -1.29    0.00    0.00       0.94    2.31   -2.13
#   9   -1.54   -3.14    0.88   -4.73    0.60    0.00    0.00      -7.93   -7.22    0.92
#  10   -1.57   -1.65    0.39   -1.75   -0.24    0.00    0.00      -4.82   -3.13   -0.43
#  11    2.88   -1.71    0.39    1.74   -0.96    0.00    0.00       2.33    3.79   -2.10
#  12   -0.63   -1.52    0.24   -4.64    0.65    0.00    0.00      -5.91  -10.56    1.47
#  13   -0.42   -1.44    0.53    1.17   -0.13    0.00    0.00      -0.29    2.58   -0.29
#  14    0.83   -1.83    0.50   -1.48   -0.12    0.00    0.00      -2.11   -3.21   -0.27
#  15    1.59   -0.83    0.09   -1.39   -0.10    0.00    0.00      -0.63   -3.84   -0.27
#  16   -0.33   -0.85    0.09    1.26   -0.15    0.00    0.00       0.02    2.97   -0.36
#  17   16.28   -1.73    0.75   -9.98    0.31    0.00    0.00       5.63  -23.98    0.74
#  18   -9.42   -0.03    0.00    5.86    0.18    0.00    0.00      -3.40   18.06    0.57
#  19  -13.67   -0.05    0.00    8.42    0.26    0.00    0.00      -5.05   19.45    0.59
#  20  -12.60   -0.04    0.00    5.56    0.17    0.00    0.00      -6.91   19.23    0.59
#  21    1.70   -0.97    0.17   -1.93   -0.13    0.00    0.00      -1.15   -4.07   -0.27
#  22  -10.01   -3.01    2.98   -1.35    1.04    0.00    0.00     -10.36   -2.68    2.06
#  23    0.36   -1.14    1.33    0.19   -0.17    0.00    0.00       0.56    0.31   -0.28
#  24    0.63   -0.54    0.16    0.17   -0.16    0.00    0.00       0.25    0.30   -0.28
#  25    0.47   -0.67    0.70    0.14   -0.13    0.00    0.00       0.51    0.30   -0.28
#  26    0.28   -1.51    1.82    0.25   -0.18    0.00    0.00       0.66    0.39   -0.28
#  27   -0.12   -1.01    0.73    0.24   -0.17    0.00    0.00      -0.33    0.39   -0.28
#  28    1.63   -1.44    3.01    0.20   -0.14    0.00    0.00       3.26    0.41   -0.28
#  29    0.97   -0.62    0.25    0.21   -0.15    0.00    0.00       0.66    0.40   -0.28
#  30    0.87   -1.34    3.40    0.13   -0.12    0.00    0.00       2.94    0.30   -0.28
#  31    1.10   -0.62    0.57    0.14   -0.13    0.00    0.00       1.06    0.30   -0.28
#  32   -1.07   -0.08    0.01    2.19    0.37    0.00    0.00       1.41    3.50    0.59
#  33    1.65   -0.05    0.00    3.27    0.36    0.00    0.00       5.22    5.33    0.59
#  34    0.30   -0.30    0.05    0.94   -0.08    0.00    0.00       0.90    2.48   -0.22
#  35   -0.51   -0.02    0.00    1.89    0.15    0.00    0.00       1.51    7.37    0.57
#  36    0.18   -1.29    3.15    0.58   -0.10    0.00    0.00       2.51    1.27   -0.22
#  37   -0.61   -1.41    1.32    0.94   -0.14    0.00    0.00       0.10    1.83   -0.28
#  38   -0.29   -0.71    0.24   -0.04   -0.13    0.00    0.00      -0.93   -0.09   -0.28
#  39   -1.03   -0.28    0.04    0.66   -0.06    0.00    0.00      -0.67    2.89   -0.28
#  40   -0.91   -0.15    0.01    0.36   -0.04    0.00    0.00      -0.73    2.67   -0.28
#  41   -3.45   -0.45    0.19    2.22   -0.09    0.00    0.00      -1.58    6.60   -0.28
#  42   -1.05   -0.27    0.04    1.17   -0.08    0.00    0.00      -0.19    3.77   -0.25
#  43   -1.43   -0.48    0.35    1.27   -0.10    0.00    0.00      -0.39    3.52   -0.28
@<TRIPOS>MOLECULE
E46625293
   43    44     0     0     0
SMALL
USER_CHARGES


@<TRIPOS>ATOM
      1 C1         13.8205   14.8764   66.7757 C.3       1            -0.1548
      2 C2         15.2962   14.8868   67.1800 C.3       1            -0.1168
      3 C3         16.0734   15.8200   66.2495 C.3       1            -0.1081
      4 C4         15.9433   15.3263   64.8072 C.3       1            -0.1031
      5 S1         16.8648   16.4327   63.7039 S.3       1             0.0006
      6 C5         18.4798   15.7305   63.6478 C.ar      1             0.3866
      7 N1         18.6196   14.4208   63.7933 N.ar      1            -0.6108
      8 C6         19.8238   13.8556   63.7565 C.ar      1             0.4801
      9 N2         19.9612   12.4848   63.9091 N.pl3     1            -0.8332
     10 C7         20.9437   14.6593   63.5620 C.ar      1            -0.3711
     11 C8         20.7577   16.0304   63.4131 C.ar      1             0.4712
     12 N3         21.8437   16.8693   63.2173 N.pl3     1            -0.7144
     13 C9         21.6369   18.3113   63.0617 C.3       1             0.1546
     14 C10        22.8908   19.0784   63.5292 C.3       1            -0.1416
     15 C11        23.6916   19.3267   62.2268 C.3       1            -0.1429
     16 C12        22.5779   19.6237   61.1921 C.3       1             0.0182
     17 N4         23.0528   19.3434   59.8306 N.4       1            -0.6338
     18 H1         23.3382   18.3776   59.7662 H         1             0.4337
     19 H2         22.3087   19.5188   59.1720 H         1             0.4377
     20 H3         23.8377   19.9408   59.6185 H         1             0.4389
     21 C13        21.4378   18.6580   61.5759 C.3       1            -0.1515
     22 N5         19.5226   16.5251   63.4557 N.ar      1            -0.5903
     23 H4         13.2668   14.2117   67.4386 H         1             0.0561
     24 H5         13.4159   15.8856   66.8522 H         1             0.0583
     25 H6         13.7279   14.5247   65.7482 H         1             0.0562
     26 H7         15.3889   15.2385   68.2076 H         1             0.0653
     27 H8         15.7009   13.8776   67.1034 H         1             0.0652
     28 H9         15.6688   16.8291   66.3262 H         1             0.0744
     29 H10        17.1247   15.8272   66.5376 H         1             0.0745
     30 H11        16.3480   14.3172   64.7306 H         1             0.0941
     31 H12        14.8921   15.3191   64.5192 H         1             0.0941
     32 H13        19.1765   11.9307   64.0439 H         1             0.4105
     33 H14        20.8421   12.0794   63.8812 H         1             0.4122
     34 H15        21.9337   14.2289   63.5279 H         1             0.1354
     35 H16        22.7407   16.5015   63.1833 H         1             0.4051
     36 H17        20.7679   18.6279   63.6387 H         1             0.1051
     37 H18        22.6093   20.0251   63.9901 H         1             0.0930
     38 H19        23.4718   18.4724   64.2244 H         1             0.0956
     39 H20        24.3541   20.1851   62.3383 H         1             0.1009
     40 H21        24.2545   18.4373   61.9438 H         1             0.0919
     41 H22        22.2472   20.6591   61.2742 H         1             0.1541
     42 H23        21.4951   17.7534   60.9705 H         1             0.0969
     43 H24        20.4726   19.1436   61.4319 H         1             0.1120
@<TRIPOS>BOND
     1    1    2 1 
     2    1   23 1 
     3    1   24 1 
     4    1   25 1 
     5    2    3 1 
     6    2   26 1 
     7    2   27 1 
     8    3    4 1 
     9    3   28 1 
    10    3   29 1 
    11    4    5 1 
    12    4   30 1 
    13    4   31 1 
    14    5    6 1 
    15    6   22 ar
    16    6    7 ar
    17    7    8 ar
    18    8    9 1 
    19    8   10 ar
    20    9   32 1 
    21    9   33 1 
    22   10   11 ar
    23   10   34 1 
    24   11   12 1 
    25   11   22 ar
    26   12   13 1 
    27   12   35 1 
    28   13   21 1 
    29   13   14 1 
    30   13   36 1 
    31   14   15 1 
    32   14   37 1 
    33   14   38 1 
    34   15   16 1 
    35   15   39 1 
    36   15   40 1 
    37   16   17 1 
    38   16   21 1 
    39   16   41 1 
    40   17   18 1 
    41   17   19 1 
    42   17   20 1 
    43   21   42 1 
    44   21   43 1 
##########                 Name:            E31215399
##########          Protonation:                   55
##########               SMILES:   c1ccc(cc1)Nc2c(c(n[nH]2)N)C(=O)Nc3ccccc3
##########            Long Name:   3-amino-5-anilino-N-phenyl-1H-pyrazole-4-carboxamide
##########          FlexRecCode: 1
##########               Number:                  313
##########   Ligand Source File: /raidb/db2/rgc/leads-emolecules-300/leads-emolecules-2f-0000214.db2.gz
##########           GlobalRank: 3854
##########                 Rank:                    1
##########               Setnum:                   84
##########             Matchnum:                 3317
##########                Cloud:                    1
##########        Electrostatic:           -12.133745
##########        Van der Waals:           -30.334782
##########  Ligand Polar Desolv:             5.125710
########## Ligand Apolar Desolv:            -2.854605
##########      Internal Energy:             0.000000
##########      Receptor Energy: 0.0
########## Receptor Desolvation:             0.000000
########## Receptor Hydrophobic:             0.000000
##########         Total Energy: -40.2
##########        Ligand Charge:             0.000000
##########            Arbitrary:    +999.9990
##########     heavy atom count:   22
##########           pose count:    1
##########        Ligand Energy:             0.000000
# num electro vdwattr vdwrepu polsolv apolsol rdesolv rhydroe totalscore fullpol fullapo
#   1   -0.47   -3.97    1.97    0.30    0.60    0.00    0.00      -1.57    0.46    0.91
#   2    1.50   -2.04    0.34   -0.85   -1.47    0.00    0.00      -2.51   -1.37   -2.38
#   3   -0.86   -2.48    0.95    0.97    0.74    0.00    0.00      -0.69    1.63    1.24
#   4   -0.33   -1.98    1.23    0.54    0.30    0.00    0.00      -0.24    1.15    0.63
#   5    1.64   -1.62    0.40   -0.50   -0.93    0.00    0.00      -1.01   -1.10   -2.03
#   6   -2.50   -1.95    0.57    0.24    0.47    0.00    0.00      -3.17    0.53    1.04
#   7   -0.56   -1.37    0.21   -0.01   -0.30    0.00    0.00      -2.02   -0.03   -0.68
#   8    1.54   -1.40    0.16   -0.05   -0.15    0.00    0.00       0.09   -0.11   -0.37
#   9    1.37   -1.19    0.11   -0.07   -0.20    0.00    0.00       0.02   -0.17   -0.47
#  10    3.08   -1.72    0.31   -0.15   -0.22    0.00    0.00       1.31   -0.33   -0.47
#  11    1.44   -2.54    1.10   -0.08   -0.23    0.00    0.00      -0.32   -0.17   -0.47
#  12    1.05   -2.38    2.11   -0.04   -0.21    0.00    0.00       0.53   -0.10   -0.46
#  13   -2.49   -1.59    0.23    0.86   -0.25    0.00    0.00      -3.24    1.50   -0.43
#  14    6.85   -1.79    0.27   -1.49   -0.34    0.00    0.00       3.49   -2.61   -0.60
#  15  -10.31   -2.62    1.61    2.75    0.21    0.00    0.00      -8.36    4.91    0.37
#  16   -5.54   -2.36    0.70    0.55    1.01    0.00    0.00      -5.65    0.90    1.66
#  17    1.52   -2.47    0.68   -0.19   -0.44    0.00    0.00      -0.90   -0.29   -0.67
#  18   -0.69   -3.32    1.00    0.01   -0.30    0.00    0.00      -3.31    0.02   -0.46
#  19   -0.76   -3.78    1.79   -0.03   -0.31    0.00    0.00      -3.08   -0.05   -0.47
#  20   -1.79   -2.89    1.15    0.04   -0.31    0.00    0.00      -3.80    0.06   -0.47
#  21   -1.70   -3.07    1.32    0.18   -0.30    0.00    0.00      -3.57    0.28   -0.47
#  22   -1.98   -2.63    0.81    0.38   -0.24    0.00    0.00      -3.66    0.63   -0.40
#  23    0.33   -0.09    0.01    0.09    0.35    0.00    0.00       0.69    0.16    0.59
#  24   -1.05   -0.11    0.01    0.32    0.39    0.00    0.00      -0.44    0.48    0.59
#  25   -0.79   -0.02    0.00   -0.09    0.09    0.00    0.00      -0.81   -0.31    0.30
#  26    2.64   -0.08    0.01   -0.08    0.24    0.00    0.00       2.73   -0.20    0.58
#  27   -0.80   -0.44    0.07    0.04   -0.09    0.00    0.00      -1.21    0.11   -0.21
#  28   -2.40   -0.26    0.05    0.15   -0.07    0.00    0.00      -2.53    0.65   -0.28
#  29   -4.08   -0.72    0.48    0.29   -0.12    0.00    0.00      -4.14    0.68   -0.28
#  30   -2.97   -1.15    1.44    0.33   -0.15    0.00    0.00      -2.50    0.61   -0.28
#  31   -0.44   -1.19    4.91    0.09   -0.12    0.00    0.00       3.26    0.22   -0.28
#  32    1.67   -0.05    0.00    0.25    0.27    0.00    0.00       2.14    0.53    0.59
#  33   -0.31   -0.89    0.35    0.27   -0.18    0.00    0.00      -0.76    0.42   -0.28
#  34    0.35   -1.46    1.97    0.34   -0.18    0.00    0.00       1.03    0.54   -0.28
#  35    1.56   -0.54    0.12    0.17   -0.16    0.00    0.00       1.15    0.30   -0.28
#  36    1.95   -0.92    0.70   -0.06   -0.15    0.00    0.00       1.52   -0.11   -0.28
#  37    2.22   -0.53    0.11   -0.33   -0.12    0.00    0.00       1.35   -0.63   -0.23
@<TRIPOS>MOLECULE
E31215399
   37    39     0     0     0
SMALL
USER_CHARGES


@<TRIPOS>ATOM
      1 N1         19.6029   12.2390   63.7718 N.pl3     1            -0.8332
      2 C1         20.4467   13.3316   63.5701 C.2       1             0.4040
      3 N2         21.6847   13.2892   63.1474 N.2       1            -0.3464
      4 N3         22.1968   14.5870   63.0732 N.pl3     1            -0.4833
      5 C2         21.2547   15.4678   63.4596 C.2       1             0.4252
      6 N4         21.3941   16.8405   63.5173 N.pl3     1            -0.6533
      7 C3         21.6995   17.5611   62.3594 C.ar      1             0.1551
      8 C4         22.4332   18.7377   62.4448 C.ar      1            -0.1758
      9 C5         22.7334   19.4471   61.2988 C.ar      1            -0.0820
     10 C6         22.3049   18.9874   60.0670 C.ar      1            -0.1384
     11 C7         21.5744   17.8165   59.9782 C.ar      1            -0.0831
     12 C8         21.2749   17.0995   61.1198 C.ar      1            -0.1464
     13 C9         20.1102   14.7405   63.7854 C.2       1            -0.3911
     14 C10        18.8292   15.2780   64.2522 C.2       1             0.6065
     15 O1         18.4677   16.3847   63.8969 O.2       1            -0.5129
     16 N5         18.0513   14.5471   65.0751 N.am      1            -0.6686
     17 C11        16.8288   15.0602   65.5207 C.ar      1             0.1445
     18 C12        16.3303   14.6905   66.7631 C.ar      1            -0.1449
     19 C13        15.1231   15.1993   67.2005 C.ar      1            -0.1006
     20 C14        14.4110   16.0759   66.4027 C.ar      1            -0.1346
     21 C15        14.9043   16.4457   65.1650 C.ar      1            -0.1007
     22 C16        16.1137   15.9450   64.7242 C.ar      1            -0.1207
     23 H1         18.6948   12.3783   64.0830 H         1             0.4116
     24 H2         19.9231   11.3402   63.5970 H         1             0.4096
     25 H3         23.0945   14.8182   62.7874 H         1             0.4418
     26 H4         21.2802   17.3046   64.3615 H         1             0.4276
     27 H5         22.7679   19.0974   63.4066 H         1             0.1271
     28 H6         23.3035   20.3620   61.3646 H         1             0.1310
     29 H7         22.5408   19.5443   59.1721 H         1             0.1284
     30 H8         21.2408   17.4607   59.0146 H         1             0.1312
     31 H9         20.7082   16.1828   61.0494 H         1             0.1301
     32 H10        18.3393   13.6652   65.3584 H         1             0.4118
     33 H11        16.8859   14.0055   67.3865 H         1             0.1251
     34 H12        14.7347   14.9118   68.1663 H         1             0.1263
     35 H13        13.4671   16.4724   66.7470 H         1             0.1235
     36 H14        14.3455   17.1304   64.5441 H         1             0.1256
     37 H15        16.5008   16.2382   63.7595 H         1             0.1299
@<TRIPOS>BOND
     1    1    2 1 
     2    1   23 1 
     3    1   24 1 
     4    2   13 1 
     5    2    3 2 
     6    3    4 1 
     7    4    5 1 
     8    4   25 1 
     9    5    6 1 
    10    5   13 2 
    11    6    7 1 
    12    6   26 1 
    13    7   12 ar
    14    7    8 ar
    15    8    9 ar
    16    8   27 1 
    17    9   10 ar
    18    9   28 1 
    19   10   11 ar
    20   10   29 1 
    21   11   12 ar
    22   11   30 1 
    23   12   31 1 
    24   13   14 1 
    25   14   15 2 
    26   14   16 am
    27   16   17 1 
    28   16   32 1 
    29   17   22 ar
    30   17   18 ar
    31   18   19 ar
    32   18   33 1 
    33   19   20 ar
    34   19   34 1 
    35   20   21 ar
    36   20   35 1 
    37   21   22 ar
    38   21   36 1 
    39   22   37 1 
##########                 Name:            E46198907
##########          Protonation:                  100
##########               SMILES:   Cc1ccc(cc1)/N=N/c2c(nn3c2ncc(c3N)C#N)N
##########            Long Name:   2,7-diamino-3-[(E)-p-tolylazo]pyrazolo[1,5-a]pyrimidine-6-carbonitrile
##########          FlexRecCode: 1
##########               Number:                  264
##########   Ligand Source File: /raidb/db2/rgc/leads-emolecules-300/leads-emolecules-2e-0000351.db2.gz
##########           GlobalRank: 3879
##########                 Rank:                    1
##########               Setnum:                    4
##########             Matchnum:                  530
##########                Cloud:                    1
##########        Electrostatic:            -8.309790
##########        Van der Waals:           -33.905685
##########  Ligand Polar Desolv:             4.807096
########## Ligand Apolar Desolv:            -2.777653
##########      Internal Energy:             0.000000
##########      Receptor Energy: 0.0
########## Receptor Desolvation:             0.000000
########## Receptor Hydrophobic:             0.000000
##########         Total Energy: -40.19
##########        Ligand Charge:             0.000000
##########            Arbitrary:    +999.9990
##########     heavy atom count:   22
##########           pose count:    1
##########        Ligand Energy:             0.000000
# num electro vdwattr vdwrepu polsolv apolsol rdesolv rhydroe totalscore fullpol fullapo
#   1   -1.17   -1.42    0.33   -0.11   -0.13    0.00    0.00      -2.50   -0.17   -0.20
#   2   -0.89   -2.74    1.86    0.09   -0.26    0.00    0.00      -1.94    0.14   -0.41
#   3   -1.53   -3.17    1.63    0.08   -0.27    0.00    0.00      -3.27    0.13   -0.45
#   4   -1.11   -2.70    0.85    0.14   -0.28    0.00    0.00      -3.11    0.23   -0.47
#   5    0.83   -2.17    0.50   -0.12   -0.45    0.00    0.00      -1.42   -0.19   -0.72
#   6   -0.81   -2.75    0.65    0.55   -0.28    0.00    0.00      -2.64    0.85   -0.44
#   7   -0.93   -2.95    0.96    0.29   -0.29    0.00    0.00      -2.92    0.45   -0.45
#   8   -3.05   -1.94    0.34    1.15    0.50    0.00    0.00      -3.01    1.99    0.86
#   9   -1.69   -2.07    0.56    0.64    0.53    0.00    0.00      -2.03    1.21    1.00
#  10   -0.80   -1.97    0.71    0.48   -0.37    0.00    0.00      -1.95    1.02   -0.78
#  11    1.10   -1.99    0.70   -0.63   -0.99    0.00    0.00      -1.81   -1.39   -2.18
#  12   -0.02   -2.81    1.71    0.41    0.95    0.00    0.00       0.24    0.87    2.03
#  13   -1.90   -2.21    0.49    0.43   -0.43    0.00    0.00      -3.61    0.95   -0.95
#  14    1.59   -1.73    0.35   -0.29   -0.16    0.00    0.00      -0.24   -0.74   -0.40
#  15   -2.09   -1.99    0.89    0.26   -0.43    0.00    0.00      -3.36    0.84   -1.36
#  16    2.21   -1.47    0.45    0.05    0.19    0.00    0.00       1.43    0.20    0.71
#  17   -2.41   -1.70    0.43    0.54   -0.80    0.00    0.00      -3.94    1.42   -2.12
#  18    4.37   -2.12    1.27   -1.34    0.28    0.00    0.00       2.45   -4.27    0.89
#  19    0.14   -1.56    0.23    0.14    0.32    0.00    0.00      -0.73    0.33    0.75
#  20   -0.42   -1.85    0.45    0.40    0.59    0.00    0.00      -0.84    0.85    1.26
#  21    1.59   -1.84    0.44   -0.80   -1.21    0.00    0.00      -1.82   -1.52   -2.28
#  22   -3.42   -2.31    0.59    0.59    0.56    0.00    0.00      -4.00    0.96    0.91
#  23    0.67   -0.43    0.09    0.08   -0.13    0.00    0.00       0.28    0.17   -0.28
#  24    0.55   -0.50    0.20    0.11   -0.13    0.00    0.00       0.23    0.23   -0.28
#  25    0.74   -0.45    0.08    0.07   -0.16    0.00    0.00       0.29    0.13   -0.28
#  26    0.93   -0.97    0.93    0.20   -0.15    0.00    0.00       0.93    0.37   -0.28
#  27    1.78   -0.61    0.21   -0.02   -0.15    0.00    0.00       1.20   -0.04   -0.28
#  28    0.40   -0.65    0.12   -0.51   -0.16    0.00    0.00      -0.80   -0.83   -0.26
#  29    0.49   -0.68    0.16   -0.12   -0.16    0.00    0.00      -0.31   -0.21   -0.28
#  30   -2.41   -0.86    0.71    0.80   -0.12    0.00    0.00      -1.87    1.95   -0.28
#  31   -3.37   -0.04    0.00    0.65    0.11    0.00    0.00      -2.65    3.19    0.52
#  32   -1.43   -0.02    0.00    0.60    0.13    0.00    0.00      -0.71    2.68    0.59
#  33    1.65   -0.03    0.00   -0.38    0.23    0.00    0.00       1.47   -0.72    0.44
#  34    2.10   -0.05    0.00    0.40    0.33    0.00    0.00       2.78    0.71    0.59
@<TRIPOS>MOLECULE
E46198907
   34    36     0     0     0
SMALL
USER_CHARGES


@<TRIPOS>ATOM
      1 C1         13.2351   15.4783   65.4896 C.3       1            -0.1177
      2 C2         14.7284   15.3757   65.3148 C.ar      1            -0.0768
      3 C3         15.3076   15.7412   64.1123 C.ar      1            -0.1197
      4 C4         16.6736   15.6502   63.9452 C.ar      1            -0.0763
      5 C5         17.4730   15.1878   64.9937 C.ar      1             0.0692
      6 C6         16.8812   14.8206   66.2049 C.ar      1            -0.1115
      7 C7         15.5144   14.9217   66.3593 C.ar      1            -0.1187
      8 N1         18.8282   15.0946   64.8349 N.2       1            -0.2984
      9 N2         19.4419   15.9060   64.0417 N.2       1            -0.1313
     10 C8         20.7786   15.8141   63.8850 C.2       1            -0.1189
     11 C9         21.6635   16.8697   63.5921 C.2       1             0.3989
     12 N3         21.4629   18.1755   63.3966 N.2       1            -0.4895
     13 C10        22.4580   18.9912   63.1305 C.2       1             0.2757
     14 C11        23.7727   18.4941   63.0453 C.2       1            -0.2310
     15 C12        24.8671   19.3712   62.7561 C.1       1             0.2662
     16 N4         25.7352   20.0671   62.5265 N.1       1            -0.3983
     17 C13        23.9897   17.1261   63.2492 C.2       1             0.5537
     18 N5         25.2523   16.6006   63.1759 N.pl3     1            -0.8037
     19 N6         22.9168   16.3262   63.5231 N.pl3     1            -0.3286
     20 N7         22.8151   14.9525   63.7694 N.2       1            -0.3753
     21 C14        21.5614   14.6390   63.9897 C.2       1             0.4183
     22 N8         21.0798   13.3637   64.2754 N.pl3     1            -0.8029
     23 H1         12.7863   15.8516   64.5691 H         1             0.0723
     24 H2         12.8276   14.4938   65.7192 H         1             0.0677
     25 H3         13.0112   16.1638   66.3070 H         1             0.0675
     26 H4         14.6884   16.0981   63.3027 H         1             0.1284
     27 H5         17.1242   15.9356   63.0061 H         1             0.1301
     28 H6         17.4930   14.4621   67.0196 H         1             0.1359
     29 H7         15.0560   14.6424   67.2965 H         1             0.1243
     30 H8         22.2675   20.0430   62.9768 H         1             0.1959
     31 H9         26.0073   17.1776   62.9813 H         1             0.4293
     32 H10        25.3915   15.6513   63.3190 H         1             0.4278
     33 H11        20.1310   13.2251   64.4223 H         1             0.4299
     34 H12        21.6931   12.6140   64.3275 H         1             0.4079
@<TRIPOS>BOND
     1    1    2 1 
     2    1   23 1 
     3    1   24 1 
     4    1   25 1 
     5    2    7 ar
     6    2    3 ar
     7    3    4 ar
     8    3   26 1 
     9    4    5 ar
    10    4   27 1 
    11    5    6 ar
    12    5    8 1 
    13    6    7 ar
    14    6   28 1 
    15    7   29 1 
    16    8    9 2 
    17    9   10 1 
    18   10   21 1 
    19   10   11 2 
    20   11   19 1 
    21   11   12 1 
    22   12   13 2 
    23   13   14 1 
    24   13   30 1 
    25   14   15 1 
    26   14   17 2 
    27   15   16 3 
    28   17   18 1 
    29   17   19 1 
    30   18   31 1 
    31   18   32 1 
    32   19   20 1 
    33   20   21 2 
    34   21   22 1 
    35   22   33 1 
    36   22   34 1 
##########                 Name:            E30671236
##########          Protonation:                  100
##########               SMILES:   Cn1cc(c2c1cccc2)C(=O)OCC(=O)c3ccccc3
##########            Long Name:   phenacyl
##########          FlexRecCode: 1
##########               Number:                  329
##########   Ligand Source File: /raidb/db2/rgc/leads-emolecules-300/leads-emolecules-2f-0000192.db2.gz
##########           GlobalRank: 3900
##########                 Rank:                    1
##########               Setnum:                   83
##########             Matchnum:                 3765
##########                Cloud:                    1
##########        Electrostatic:            -6.599694
##########        Van der Waals:           -34.628567
##########  Ligand Polar Desolv:             6.441061
########## Ligand Apolar Desolv:            -5.391594
##########      Internal Energy:             0.000000
##########      Receptor Energy: 0.0
########## Receptor Desolvation:             0.000000
########## Receptor Hydrophobic:             0.000000
##########         Total Energy: -40.18
##########        Ligand Charge:             0.000000
##########            Arbitrary:    +999.9990
##########     heavy atom count:   22
##########           pose count:    1
##########        Ligand Energy:             0.000000
# num electro vdwattr vdwrepu polsolv apolsol rdesolv rhydroe totalscore fullpol fullapo
#   1   -0.20   -0.85    0.13    0.10   -0.21    0.00    0.00      -1.03    0.28   -0.57
#   2    1.57   -1.57    0.27    0.00    0.56    0.00    0.00       0.83    0.01    1.36
#   3   -0.42   -2.71    1.43   -0.14   -0.45    0.00    0.00      -2.29   -0.28   -0.94
#   4   -0.10   -1.92    0.51    0.85   -0.21    0.00    0.00      -0.87    1.74   -0.44
#   5    1.92   -1.94    0.38   -2.25   -0.09    0.00    0.00      -1.99   -3.87   -0.16
#   6   -2.38   -2.76    0.69    3.38   -0.24    0.00    0.00      -1.31    5.28   -0.38
#   7   -1.90   -1.30    0.15    1.10    0.10    0.00    0.00      -1.84    1.92    0.17
#   8    0.15   -1.29    0.27   -0.03   -0.05    0.00    0.00      -0.96   -0.05   -0.09
#   9    4.79   -1.96    0.38   -0.97   -0.18    0.00    0.00       2.06   -1.63   -0.31
#  10   -7.24   -2.23    0.78    2.07   -0.15    0.00    0.00      -6.76    3.67   -0.26
#  11   -2.02   -2.39    0.74    0.26   -0.26    0.00    0.00      -3.66    0.41   -0.41
#  12   -1.08   -2.67    0.97   -0.03   -0.26    0.00    0.00      -3.09   -0.05   -0.44
#  13   -1.63   -2.40    0.73   -0.19   -0.30    0.00    0.00      -3.80   -0.30   -0.47
#  14   -0.69   -2.98    0.81   -0.11   -0.31    0.00    0.00      -3.27   -0.17   -0.47
#  15   -0.34   -3.94    1.42   -0.05   -0.31    0.00    0.00      -3.22   -0.07   -0.47
#  16   -0.31   -3.01    0.89    0.11   -0.29    0.00    0.00      -2.61    0.17   -0.45
#  17    0.08   -1.43    0.25    0.27   -0.18    0.00    0.00      -1.01    0.65   -0.44
#  18    0.13   -1.30    0.16    0.31   -0.19    0.00    0.00      -0.90    0.73   -0.46
#  19    0.91   -1.15    0.08    0.14   -0.18    0.00    0.00      -0.20    0.36   -0.47
#  20    0.81   -1.16    0.23    0.01   -0.15    0.00    0.00      -0.26    0.03   -0.47
#  21    0.75   -1.25    0.37    0.01   -0.13    0.00    0.00      -0.24    0.02   -0.46
#  22   -0.29   -1.28    0.19   -0.05   -0.26    0.00    0.00      -1.70   -0.15   -0.73
#  23   -0.26   -0.37    0.11    0.19   -0.09    0.00    0.00      -0.42    0.60   -0.28
#  24   -0.24   -0.19    0.01    0.18   -0.06    0.00    0.00      -0.30    0.88   -0.28
#  25   -0.11   -0.24    0.05    0.15   -0.06    0.00    0.00      -0.21    0.70   -0.28
#  26   -0.79   -1.09    1.63    0.20   -0.13    0.00    0.00      -0.18    0.42   -0.28
#  27    0.48   -0.56    0.34   -0.07   -0.14    0.00    0.00       0.06   -0.14   -0.28
#  28    0.51   -0.57    0.36   -0.06   -0.13    0.00    0.00       0.11   -0.14   -0.28
#  29    1.77   -0.62    0.20    0.26   -0.13    0.00    0.00       1.48    0.48   -0.24
#  30    1.56   -0.39    0.05    0.40   -0.14    0.00    0.00       1.49    0.82   -0.28
#  31    0.98   -0.77    0.46    0.47   -0.16    0.00    0.00       0.98    0.84   -0.28
#  32   -0.65   -1.33    1.16    0.28   -0.19    0.00    0.00      -0.73    0.42   -0.28
#  33    0.40   -0.69    0.24   -0.23   -0.15    0.00    0.00      -0.44   -0.38   -0.26
#  34    0.31   -0.28    0.04   -0.26   -0.08    0.00    0.00      -0.27   -0.87   -0.26
#  35   -1.21   -0.25    0.02   -0.01   -0.08    0.00    0.00      -1.53   -0.05   -0.28
#  36   -1.19   -0.17    0.02    0.08   -0.04    0.00    0.00      -1.30    0.55   -0.28
#  37   -0.70   -0.19    0.04    0.08   -0.04    0.00    0.00      -0.80    0.58   -0.28
@<TRIPOS>MOLECULE
E30671236
   37    39     0     0     0
SMALL
USER_CHARGES


@<TRIPOS>ATOM
      1 C1         26.4661   13.9338   63.0279 C.3       1             0.0696
      2 N1         25.0779   14.3814   63.1650 N.pl3     1            -0.4693
      3 C2         24.0444   13.5898   63.5370 C.2       1             0.1487
      4 C3         22.8913   14.3192   63.5656 C.2       1            -0.2300
      5 C4         21.5526   13.8332   63.9190 C.2       1             0.5422
      6 O1         21.3906   12.6683   64.2277 O.2       1            -0.5100
      7 O2         20.5022   14.6784   63.9017 O.3       1            -0.3373
      8 C5         19.2282   14.1375   64.2570 C.3       1             0.0235
      9 C6         18.1835   15.2210   64.1814 C.2       1             0.3995
     10 O3         18.3114   16.1323   63.3918 O.2       1            -0.4278
     11 C7         17.0082   15.1730   65.0658 C.ar      1            -0.1682
     12 C8         15.7895   15.7151   64.6451 C.ar      1            -0.0747
     13 C9         14.6927   15.6657   65.4793 C.ar      1            -0.1302
     14 C10        14.7955   15.0818   66.7298 C.ar      1            -0.0839
     15 C11        15.9981   14.5435   67.1535 C.ar      1            -0.1310
     16 C12        17.1026   14.5798   66.3287 C.ar      1            -0.0570
     17 C13        23.2565   15.6927   63.1718 C.ar      1            -0.0577
     18 C14        22.5407   16.8767   63.0143 C.ar      1            -0.0699
     19 C15        23.1966   18.0235   62.6237 C.ar      1            -0.1339
     20 C16        24.5638   18.0020   62.3877 C.ar      1            -0.0990
     21 C17        25.2841   16.8376   62.5398 C.ar      1            -0.1209
     22 C18        24.6408   15.6704   62.9388 C.ar      1             0.0829
     23 H1         26.5307   12.8720   63.2658 H         1             0.0784
     24 H2         26.8012   14.0976   62.0037 H         1             0.0909
     25 H3         27.0993   14.4987   63.7121 H         1             0.0877
     26 H4         24.1209   12.5392   63.7754 H         1             0.1887
     27 H5         18.9693   13.3343   63.5671 H         1             0.1054
     28 H6         19.2709   13.7442   65.2727 H         1             0.1054
     29 H7         15.7079   16.1714   63.6697 H         1             0.1335
     30 H8         13.7511   16.0843   65.1561 H         1             0.1324
     31 H9         13.9328   15.0462   67.3787 H         1             0.1300
     32 H10        16.0706   14.0898   68.1310 H         1             0.1321
     33 H11        18.0391   14.1554   66.6590 H         1             0.1359
     34 H12        21.4764   16.8959   63.1970 H         1             0.1334
     35 H13        22.6443   18.9433   62.5003 H         1             0.1280
     36 H14        25.0679   18.9067   62.0815 H         1             0.1295
     37 H15        26.3479   16.8318   62.3531 H         1             0.1231
@<TRIPOS>BOND
     1    1    2 1 
     2    1   23 1 
     3    1   24 1 
     4    1   25 1 
     5    2   22 1 
     6    2    3 1 
     7    3    4 2 
     8    3   26 1 
     9    4    5 1 
    10    4   17 1 
    11    5    6 2 
    12    5    7 1 
    13    7    8 1 
    14    8    9 1 
    15    8   27 1 
    16    8   28 1 
    17    9   10 2 
    18    9   11 1 
    19   11   16 ar
    20   11   12 ar
    21   12   13 ar
    22   12   29 1 
    23   13   14 ar
    24   13   30 1 
    25   14   15 ar
    26   14   31 1 
    27   15   16 ar
    28   15   32 1 
    29   16   33 1 
    30   17   22 ar
    31   17   18 ar
    32   18   19 ar
    33   18   34 1 
    34   19   20 ar
    35   19   35 1 
    36   20   21 ar
    37   20   36 1 
    38   21   22 ar
    39   21   37 1 
##########                 Name:             E3462543
##########          Protonation:                  100
##########               SMILES:   c1ccc2c(c1)c(c[nH]2)C(=O)COC(=O)c3cccc(c3)F
##########            Long Name:   [2-(1H-indol-3-yl)-2-oxo-ethyl]
##########          FlexRecCode: 1
##########               Number:                  490
##########   Ligand Source File: /raidb/db2/rgc/leads-emolecules-300/leads-emolecules-2h-0000341.db2.gz
##########           GlobalRank: 3900
##########                 Rank:                    1
##########               Setnum:                  188
##########             Matchnum:                  351
##########                Cloud:                    1
##########        Electrostatic:           -10.023892
##########        Van der Waals:           -33.685555
##########  Ligand Polar Desolv:             8.373558
########## Ligand Apolar Desolv:            -4.846917
##########      Internal Energy:             0.000000
##########      Receptor Energy: 0.0
########## Receptor Desolvation:             0.000000
########## Receptor Hydrophobic:             0.000000
##########         Total Energy: -40.18
##########        Ligand Charge:             0.000000
##########            Arbitrary:    +999.9990
##########     heavy atom count:   22
##########           pose count:    1
##########        Ligand Energy:             0.000000
# num electro vdwattr vdwrepu polsolv apolsol rdesolv rhydroe totalscore fullpol fullapo
#   1    0.43   -0.95    0.22    0.19   -0.19    0.00    0.00      -0.30    0.48   -0.48
#   2   -0.37   -1.79    0.58   -0.04   -0.14    0.00    0.00      -1.77   -0.10   -0.34
#   3    0.34   -2.92    2.13    0.14   -0.21    0.00    0.00      -0.52    0.29   -0.45
#   4    0.07   -1.85    0.51    0.15   -0.19    0.00    0.00      -1.31    0.32   -0.41
#   5    0.17   -1.40    0.40    0.01   -0.18    0.00    0.00      -1.01    0.02   -0.45
#   6    0.49   -1.04    0.11   -0.07   -0.16    0.00    0.00      -0.67   -0.20   -0.47
#   7    0.44   -1.02    0.09   -0.05   -0.16    0.00    0.00      -0.71   -0.14   -0.46
#   8    1.44   -1.92    0.45   -1.11   -0.09    0.00    0.00      -1.22   -1.94   -0.16
#   9   -2.26   -2.55    0.53    1.75   -0.25    0.00    0.00      -2.78    2.78   -0.39
#  10   -1.52   -1.30    0.23    0.69    0.08    0.00    0.00      -1.82    1.24    0.15
#  11    0.13   -1.20    0.20   -0.01   -0.07    0.00    0.00      -0.94   -0.01   -0.11
#  12    5.19   -1.85    0.28   -0.97   -0.18    0.00    0.00       2.47   -1.66   -0.31
#  13   -9.09   -2.82    2.16    2.65   -0.13    0.00    0.00      -7.23    4.81   -0.24
#  14   -3.01   -2.20    0.45    0.40   -0.27    0.00    0.00      -4.64    0.63   -0.43
#  15    0.75   -3.15    0.78    0.61   -0.63    0.00    0.00      -1.64    0.94   -0.97
#  16   -1.19   -3.93    1.19   -1.67    0.77    0.00    0.00      -4.83   -2.46    1.14
#  17    0.58   -2.94    0.96   -0.01   -0.50    0.00    0.00      -1.91   -0.01   -0.78
#  18   -1.03   -2.81    0.84   -0.07   -0.31    0.00    0.00      -3.39   -0.11   -0.48
#  19   -1.00   -2.20    0.60    0.01   -0.31    0.00    0.00      -2.91    0.01   -0.47
#  20   -1.34   -2.94    1.26    0.24   -0.29    0.00    0.00      -3.07    0.40   -0.47
#  21   -0.91   -3.20    1.64    0.42   -0.27    0.00    0.00      -2.32    0.71   -0.46
#  22   -0.70   -2.69    1.23    0.27   -0.27    0.00    0.00      -2.16    0.43   -0.43
#  23   -0.57   -1.12    1.65   -0.23   -0.12    0.00    0.00      -0.39   -0.48   -0.26
#  24   -0.29   -0.24    0.05    0.00   -0.06    0.00    0.00      -0.55   -0.01   -0.27
#  25   -1.03   -0.15    0.01    0.15   -0.04    0.00    0.00      -1.06    1.13   -0.28
#  26   -0.49   -0.13    0.01    0.10   -0.04    0.00    0.00      -0.55    0.77   -0.28
#  27    0.58   -0.55    0.26    0.15   -0.13    0.00    0.00       0.31    0.32   -0.28
#  28    0.44   -0.44    0.12    0.15   -0.13    0.00    0.00       0.14    0.33   -0.28
#  29    0.90   -0.99    0.87    1.71   -0.17    0.00    0.00       2.32    2.84   -0.28
#  30   -1.48   -0.09    0.00    2.66    0.40    0.00    0.00       1.49    4.02    0.60
#  31    0.86   -0.95    0.99    0.46   -0.16    0.00    0.00       1.20    0.79   -0.28
#  32    1.14   -0.39    0.06    0.23   -0.13    0.00    0.00       0.91    0.49   -0.28
#  33    0.93   -0.88    0.53   -0.08   -0.15    0.00    0.00       0.35   -0.15   -0.28
#  34    1.40   -0.79    0.35   -0.50   -0.15    0.00    0.00       0.31   -0.87   -0.26
@<TRIPOS>MOLECULE
E3462543
   34    36     0     0     0
SMALL
USER_CHARGES


@<TRIPOS>ATOM
      1 F1         26.4965   13.1103   63.2158 F         1            -0.1317
      2 C1         25.4356   13.9336   63.0683 C.ar      1             0.0895
      3 C2         24.1699   13.4962   63.4100 C.ar      1            -0.0907
      4 C3         23.0758   14.3493   63.2568 C.ar      1            -0.0989
      5 C4         23.2683   15.6399   62.7593 C.ar      1            -0.0686
      6 C5         24.5365   16.0646   62.4220 C.ar      1            -0.1017
      7 C6         25.6188   15.2173   62.5803 C.ar      1            -0.1155
      8 C7         21.7198   13.8887   63.6195 C.2       1             0.5121
      9 O1         21.5551   12.7657   64.0518 O.2       1            -0.4985
     10 O2         20.6657   14.7144   63.4706 O.3       1            -0.3245
     11 C8         19.3838   14.2032   63.8410 C.3       1             0.0207
     12 C9         18.5102   15.3349   64.3177 C.2       1             0.4273
     13 O3         18.6666   16.4525   63.8698 O.2       1            -0.4432
     14 C10        17.5063   15.0946   65.2887 C.2       1            -0.2746
     15 C11        17.6901   14.6188   66.5695 C.2       1             0.1413
     16 N1         16.4995   14.5230   67.1915 N.pl3     1            -0.5646
     17 C12        15.4784   14.9286   66.3562 C.ar      1             0.0735
     18 C13        14.0991   15.0173   66.5164 C.ar      1            -0.1200
     19 C14        13.3139   15.4701   65.4788 C.ar      1            -0.1003
     20 C15        13.8846   15.8400   64.2696 C.ar      1            -0.1301
     21 C16        15.2486   15.7592   64.0919 C.ar      1            -0.0720
     22 C17        16.0540   15.3095   65.1343 C.ar      1            -0.0555
     23 H1         24.0277   12.4969   63.7938 H         1             0.1514
     24 H2         22.4253   16.3042   62.6385 H         1             0.1503
     25 H3         24.6856   17.0625   62.0368 H         1             0.1457
     26 H4         26.6101   15.5567   62.3184 H         1             0.1449
     27 H5         18.9202   13.7249   62.9782 H         1             0.1025
     28 H6         19.5014   13.4729   64.6416 H         1             0.1025
     29 H7         18.6434   14.3615   67.0070 H         1             0.1877
     30 H8         16.3765   14.2117   68.1019 H         1             0.4241
     31 H9         13.6443   14.7312   67.4533 H         1             0.1243
     32 H10        12.2437   15.5372   65.6077 H         1             0.1301
     33 H11        13.2572   16.1925   63.4644 H         1             0.1286
     34 H12        15.6911   16.0474   63.1497 H         1             0.1341
@<TRIPOS>BOND
     1    1    2 1 
     2    2    7 ar
     3    2    3 ar
     4    3    4 ar
     5    3   23 1 
     6    4    5 ar
     7    4    8 1 
     8    5    6 ar
     9    5   24 1 
    10    6    7 ar
    11    6   25 1 
    12    7   26 1 
    13    8    9 2 
    14    8   10 1 
    15   10   11 1 
    16   11   12 1 
    17   11   27 1 
    18   11   28 1 
    19   12   13 2 
    20   12   14 1 
    21   14   22 1 
    22   14   15 2 
    23   15   16 1 
    24   15   29 1 
    25   16   17 1 
    26   16   30 1 
    27   17   22 ar
    28   17   18 ar
    29   18   19 ar
    30   18   31 1 
    31   19   20 ar
    32   19   32 1 
    33   20   21 ar
    34   20   33 1 
    35   21   22 ar
    36   21   34 1 
##########                 Name:            E25953665
##########          Protonation:                   31
##########               SMILES:   [H]/N=C(\c1cccc(c1)C)/NOC(=O)c2cccc(c2)Cl
##########            Long Name:   [(3-methylbenzenecarboximidoyl)amino]
##########          FlexRecCode: 1
##########               Number:                  585
##########   Ligand Source File: /raidb/db2/rgc/leads-emolecules-300/leads-emolecules-3-ay-0000004.db2.gz
##########           GlobalRank: 3940
##########                 Rank:                    1
##########               Setnum:                   26
##########             Matchnum:                 4637
##########                Cloud:                    1
##########        Electrostatic:            -6.257484
##########        Van der Waals:           -33.267887
##########  Ligand Polar Desolv:             4.096430
########## Ligand Apolar Desolv:            -4.728612
##########      Internal Energy:             0.000000
##########      Receptor Energy: 0.0
########## Receptor Desolvation:             0.000000
########## Receptor Hydrophobic:             0.000000
##########         Total Energy: -40.16
##########        Ligand Charge:             0.000000
##########            Arbitrary:    +999.9990
##########     heavy atom count:   20
##########           pose count:    1
##########        Ligand Energy:             0.000000
# num electro vdwattr vdwrepu polsolv apolsol rdesolv rhydroe totalscore fullpol fullapo
#   1    0.20   -0.82    0.14   -0.12   -0.07    0.00    0.00      -0.67   -0.35   -0.20
#   2    0.20   -1.65    0.42   -0.03   -0.15    0.00    0.00      -1.22   -0.08   -0.40
#   3    0.40   -1.77    0.70   -0.06   -0.14    0.00    0.00      -0.87   -0.19   -0.45
#   4    0.46   -1.87    0.69   -0.06   -0.17    0.00    0.00      -0.95   -0.17   -0.47
#   5    0.09   -1.63    0.34    0.01   -0.18    0.00    0.00      -1.38    0.02   -0.44
#   6    0.00   -2.01    0.67    0.10   -0.19    0.00    0.00      -1.44    0.21   -0.41
#   7    0.23   -2.46    1.06    0.03   -0.20    0.00    0.00      -1.33    0.06   -0.43
#   8    1.36   -2.08    0.51   -1.01   -1.22    0.00    0.00      -2.43   -1.82   -2.20
#   9   -3.67   -4.14    2.76    2.36    0.83    0.00    0.00      -1.87    3.86    1.35
#  10   -2.18   -1.73    0.49    1.31    0.37    0.00    0.00      -1.73    2.28    0.64
#  11   -0.50   -1.43    0.16    0.29   -0.36    0.00    0.00      -1.83    0.49   -0.60
#  12    5.35   -1.83    0.32   -1.26   -0.09    0.00    0.00       2.48   -2.23   -0.16
#  13   -7.70   -2.46    1.15    1.74   -0.19    0.00    0.00      -7.47    3.36   -0.37
#  14   -1.34   -2.09    0.38    0.20   -0.26    0.00    0.00      -3.12    0.32   -0.41
#  15   -0.31   -2.97    0.75   -0.02   -0.29    0.00    0.00      -2.84   -0.03   -0.46
#  16   -0.30   -3.77    1.35   -0.22   -0.32    0.00    0.00      -3.25   -0.33   -0.47
#  17   -0.60   -2.84    0.83   -0.09   -0.29    0.00    0.00      -3.00   -0.14   -0.46
#  18   -0.68   -2.53    0.84    0.02   -0.19    0.00    0.00      -2.55    0.03   -0.30
#  19   -0.57   -6.10    3.99    0.04   -0.62    0.00    0.00      -3.27    0.07   -0.98
#  20   -0.67   -2.47    0.65    0.08   -0.26    0.00    0.00      -2.67    0.13   -0.44
#  21   -0.08   -0.13    0.01    0.04   -0.04    0.00    0.00      -0.20    0.28   -0.28
#  22   -0.02   -0.37    0.23    0.10   -0.08    0.00    0.00      -0.14    0.36   -0.28
#  23   -0.19   -0.35    0.08    0.07   -0.08    0.00    0.00      -0.47    0.24   -0.28
#  24   -0.66   -0.32    0.17    0.13   -0.05    0.00    0.00      -0.73    0.70   -0.28
#  25   -0.88   -0.36    0.13    0.17   -0.07    0.00    0.00      -1.01    0.67   -0.28
#  26    0.07   -0.27    0.03    0.05   -0.06    0.00    0.00      -0.19    0.17   -0.22
#  27   -0.60   -0.85    0.91    0.03   -0.10    0.00    0.00      -0.61    0.06   -0.22
#  28    1.78   -0.11    0.02   -0.63    0.26    0.00    0.00       1.32   -1.07    0.45
#  29    1.04   -0.04    0.00   -0.37    0.12    0.00    0.00       0.75   -1.17    0.37
#  30    0.54   -0.91    0.78    0.11   -0.16    0.00    0.00       0.36    0.18   -0.27
#  31   -0.66   -1.14    0.54    0.87   -0.18    0.00    0.00      -0.57    1.32   -0.28
#  32    1.12   -0.54    0.10    0.46   -0.14    0.00    0.00       1.00    0.89   -0.28
#  33    2.54   -0.55    0.12   -0.23   -0.14    0.00    0.00       1.75   -0.43   -0.26
@<TRIPOS>MOLECULE
E25953665
   33    34     0     0     0
SMALL
USER_CHARGES


@<TRIPOS>ATOM
      1 C1         26.9879   13.7308   63.3800 C.3       1            -0.1187
      2 C2         25.6949   14.5038   63.4226 C.ar      1            -0.0783
      3 C3         25.7038   15.8747   63.2384 C.ar      1            -0.1000
      4 C4         24.5210   16.5910   63.2758 C.ar      1            -0.1095
      5 C5         23.3241   15.9407   63.4983 C.ar      1            -0.1007
      6 C6         23.3089   14.5592   63.6850 C.ar      1            -0.0941
      7 C7         24.5040   13.8418   63.6402 C.ar      1            -0.0899
      8 C8         22.0277   13.8553   63.9242 C.2       1             0.4694
      9 N1         22.0052   12.7688   64.6457 N.2       1            -0.7371
     10 N2         20.8648   14.3460   63.3869 N.pl3     1            -0.5648
     11 O1         19.6329   14.1339   64.0521 O.3       1            -0.0843
     12 C9         18.9993   15.2655   64.4025 C.2       1             0.4915
     13 O2         19.4941   16.3446   64.1421 O.2       1            -0.4950
     14 C10        17.7007   15.1981   65.1046 C.ar      1            -0.1148
     15 C11        17.6059   14.5619   66.3438 C.ar      1            -0.0561
     16 C12        16.3912   14.5026   66.9946 C.ar      1            -0.1159
     17 C13        15.2674   15.0720   66.4223 C.ar      1            -0.0693
     18 C14        15.3536   15.7041   65.1936 C.ar      1            -0.0489
     19 Cl1        13.9380   16.4152   64.4838 Cl        1            -0.0520
     20 C15        16.5651   15.7753   64.5344 C.ar      1            -0.0424
     21 H1         27.8155   14.4169   63.1994 H         1             0.0756
     22 H2         27.1389   13.2223   64.3321 H         1             0.0716
     23 H3         26.9448   12.9945   62.5775 H         1             0.0702
     24 H4         26.6380   16.3880   63.0637 H         1             0.1304
     25 H5         24.5341   17.6612   63.1313 H         1             0.1328
     26 H6         22.4013   16.5009   63.5279 H         1             0.1254
     27 H7         24.4978   12.7709   63.7798 H         1             0.1294
     28 H8         22.8275   12.4218   65.0256 H         1             0.3509
     29 H9         20.8866   14.8383   62.5513 H         1             0.4336
     30 H10        18.4820   14.1167   66.7918 H         1             0.1489
     31 H11        16.3170   14.0104   67.9530 H         1             0.1467
     32 H12        14.3188   15.0226   66.9362 H         1             0.1444
     33 H13        16.6327   16.2728   63.5783 H         1             0.1509
@<TRIPOS>BOND
     1    1    2 1 
     2    1   21 1 
     3    1   22 1 
     4    1   23 1 
     5    2    7 ar
     6    2    3 ar
     7    3    4 ar
     8    3   24 1 
     9    4    5 ar
    10    4   25 1 
    11    5    6 ar
    12    5   26 1 
    13    6    7 ar
    14    6    8 1 
    15    7   27 1 
    16    8    9 2 
    17    8   10 1 
    18    9   28 1 
    19   10   11 1 
    20   10   29 1 
    21   11   12 1 
    22   12   13 2 
    23   12   14 1 
    24   14   20 ar
    25   14   15 ar
    26   15   16 ar
    27   15   30 1 
    28   16   17 ar
    29   16   31 1 
    30   17   18 ar
    31   17   32 1 
    32   18   19 1 
    33   18   20 ar
    34   20   33 1 
##########                 Name:            E46039606
##########          Protonation:                   99
##########               SMILES:   c1cc(ccc1C[C@@H]2CC[NH+](C2)C(CO)CO)CO
##########            Long Name:   R)-3-[[4-(hydroxymethyl)phenyl]methyl]pyrrolidin-1-ium-1-yl]propane-1,3-diol
##########          FlexRecCode: 1
##########               Number:                  277
##########   Ligand Source File: /raidb/db2/rgc/leads-emolecules-300/leads-lt300-emolecules-1d-0000129.db2.gz
##########           GlobalRank: 3940
##########                 Rank:                    1
##########               Setnum:                  310
##########             Matchnum:                 5964
##########                Cloud:                    1
##########        Electrostatic:           -24.939911
##########        Van der Waals:           -22.000355
##########  Ligand Polar Desolv:             6.355973
########## Ligand Apolar Desolv:             0.420816
##########      Internal Energy:             0.000000
##########      Receptor Energy: 0.0
########## Receptor Desolvation:             0.000000
########## Receptor Hydrophobic:             0.000000
##########         Total Energy: -40.16
##########        Ligand Charge:             1.000000
##########            Arbitrary:    +999.9990
##########     heavy atom count:   19
##########           pose count:    1
##########        Ligand Energy:             0.000000
# num electro vdwattr vdwrepu polsolv apolsol rdesolv rhydroe totalscore fullpol fullapo
#   1    8.65   -1.47    0.17   -6.54    0.48    0.00    0.00       1.29  -12.17    0.90
#   2   -1.02   -1.18    0.20    0.48   -0.06    0.00    0.00      -1.59    0.97   -0.13
#   3   -0.79   -1.02    0.18    0.58   -0.07    0.00    0.00      -1.12    1.43   -0.17
#   4   -1.33   -1.36    0.47    0.35   -0.05    0.00    0.00      -1.92    0.97   -0.13
#   5   11.10   -1.80    1.09   -3.95    0.29    0.00    0.00       6.74  -11.94    0.89
#   6    5.68   -0.74    0.04   -3.65    0.11    0.00    0.00       1.45  -10.23    0.32
#   7   -4.96   -0.02    0.00    2.46    0.10    0.00    0.00      -2.42   12.17    0.49
#   8    0.16   -0.55    0.06    0.05   -0.10    0.00    0.00      -0.39    0.17   -0.38
#   9    1.14   -0.44    0.03   -0.87   -0.06    0.00    0.00      -0.20   -3.60   -0.23
#  10    0.75   -0.56    0.04   -0.63   -0.06    0.00    0.00      -0.46   -2.12   -0.19
#  11    0.32   -1.00    0.24   -0.53   -0.07    0.00    0.00      -1.03   -1.53   -0.20
#  12    0.12   -1.47    0.26   -0.37   -0.14    0.00    0.00      -1.59   -0.89   -0.34
#  13    0.23   -1.86    0.46   -0.73   -0.21    0.00    0.00      -2.10   -1.59   -0.45
#  14   -0.09   -2.53    0.82   -0.66   -0.25    0.00    0.00      -2.70   -1.20   -0.45
#  15   -0.28   -1.86    0.42   -0.65   -0.23    0.00    0.00      -2.61   -1.11   -0.39
#  16    0.34   -1.62    0.30    0.41   -0.09    0.00    0.00      -0.65    0.64   -0.14
#  17   -1.08   -5.16    4.56   -2.22    1.18    0.00    0.00      -2.72   -3.29    1.75
#  18   -0.44   -1.65    0.37   -0.62   -0.22    0.00    0.00      -2.56   -1.25   -0.45
#  19   -0.18   -1.59    0.32   -0.66   -0.18    0.00    0.00      -2.29   -1.53   -0.43
#  20    0.16   -0.72    0.11    0.03   -0.14    0.00    0.00      -0.57    0.10   -0.41
#  21   -8.92   -0.05    0.00    3.92    0.58    0.00    0.00      -4.46    8.44    1.24
#  22   -1.58   -0.50    0.14    1.18   -0.09    0.00    0.00      -0.84    2.85   -0.22
#  23   -1.20   -0.48    0.17    0.51   -0.10    0.00    0.00      -1.10    1.42   -0.28
#  24   -4.71   -0.59    0.34    2.38   -0.11    0.00    0.00      -2.69    6.27   -0.28
#  25   -2.20   -0.99    1.65    1.01   -0.10    0.00    0.00      -0.62    2.53   -0.24
#  26   -1.72   -0.59    0.77    0.38   -0.08    0.00    0.00      -1.23    1.37   -0.28
#  27  -11.06   -0.14    0.05    3.08    0.46    0.00    0.00      -7.60    8.25    1.24
#  28   -2.69   -0.41    0.26    1.04   -0.06    0.00    0.00      -1.87    4.49   -0.26
#  29   -1.53   -0.11    0.01    0.41   -0.03    0.00    0.00      -1.25    4.03   -0.28
#  30   -0.71   -0.10    0.00    0.15   -0.03    0.00    0.00      -0.68    1.47   -0.28
#  31   -0.75   -0.25    0.12    0.36   -0.04    0.00    0.00      -0.57    2.34   -0.27
#  32   -0.70   -0.20    0.02    0.55   -0.06    0.00    0.00      -0.39    2.52   -0.28
#  33   -0.36   -0.39    0.14    0.55   -0.07    0.00    0.00      -0.12    2.32   -0.28
#  34   -0.45   -0.52    0.26    0.66   -0.09    0.00    0.00      -0.13    2.12   -0.28
#  35   -0.58   -0.36    0.10    0.76   -0.09    0.00    0.00      -0.17    2.32   -0.28
#  36    0.34   -1.10    1.01    0.42   -0.15    0.00    0.00       0.51    0.77   -0.28
#  37    0.25   -0.43    0.10    0.21   -0.13    0.00    0.00       0.00    0.45   -0.28
#  38    0.15   -0.57    0.12    0.24   -0.17    0.00    0.00      -0.23    0.40   -0.28
#  39   -3.23   -0.25    0.12    2.58    0.83    0.00    0.00       0.04    3.85    1.24
#  40    1.12   -0.30    0.04    0.30   -0.09    0.00    0.00       1.08    0.94   -0.28
#  41    0.14   -0.32    0.06    0.90   -0.09    0.00    0.00       0.69    2.73   -0.28
#  42   -1.04   -0.20    0.03    0.83   -0.05    0.00    0.00      -0.44    4.37   -0.27
#  43   -2.03   -0.44    0.24    1.65   -0.07    0.00    0.00      -0.65    4.95   -0.22
@<TRIPOS>MOLECULE
E46039606
   43    44     0     0     0
SMALL
USER_CHARGES


@<TRIPOS>ATOM
      1 O1         20.7932   18.5342   60.4834 O.3       1            -0.5496
      2 C1         21.3698   19.7450   60.9770 C.3       1             0.0541
      3 C2         22.7880   19.8970   60.4235 C.3       1             0.0340
      4 C3         23.2185   21.3622   60.5191 C.3       1             0.0556
      5 O2         24.2988   21.6011   59.6149 O.3       1            -0.5503
      6 N1         23.7109   19.0635   61.2054 N.4       1            -0.3821
      7 H1         23.7107   19.3385   62.1762 H         1             0.4384
      8 C4         25.0718   19.1130   60.6434 C.3       1            -0.0112
      9 C5         25.7643   17.9505   61.3484 C.3       1            -0.1385
     10 C6         24.6515   16.9276   61.5658 C.3       1            -0.0983
     11 C7         24.5187   16.5898   63.0520 C.3       1            -0.0709
     12 C8         23.3767   15.6262   63.2480 C.ar      1            -0.0919
     13 C9         23.6052   14.2638   63.1959 C.ar      1            -0.1158
     14 C10        22.5578   13.3799   63.3757 C.ar      1            -0.0942
     15 C11        21.2819   13.8583   63.6081 C.ar      1            -0.0836
     16 C12        20.1398   12.8947   63.8036 C.3       1             0.1102
     17 O3         20.5450   11.8492   64.6896 O.3       1            -0.5695
     18 C13        21.0535   15.2206   63.6616 C.ar      1            -0.0954
     19 C14        22.1018   16.1045   63.4856 C.ar      1            -0.1179
     20 C15        23.3803   17.6275   61.0611 C.3       1            -0.0139
     21 H2         20.7291   18.4935   59.5193 H         1             0.3975
     22 H3         20.7628   20.5926   60.6591 H         1             0.0680
     23 H4         21.4063   19.7122   62.0660 H         1             0.0881
     24 H5         22.8069   19.5801   59.3808 H         1             0.1545
     25 H6         22.3779   22.0055   60.2589 H         1             0.0676
     26 H7         23.5415   21.5803   61.5369 H         1             0.0878
     27 H8         24.0823   21.4270   58.6885 H         1             0.3976
     28 H9         25.0521   18.9563   59.5648 H         1             0.1299
     29 H10        25.5576   20.0583   60.8853 H         1             0.1341
     30 H11        26.5489   17.5334   60.7172 H         1             0.1182
     31 H12        26.1776   18.2745   62.3036 H         1             0.1002
     32 H13        24.8456   16.0248   60.9867 H         1             0.1088
     33 H14        25.4436   16.1337   63.4051 H         1             0.0836
     34 H15        24.3251   17.5022   63.6161 H         1             0.0876
     35 H16        24.6021   13.8900   63.0144 H         1             0.1244
     36 H17        22.7361   12.3155   63.3343 H         1             0.1267
     37 H18        19.2875   13.4230   64.2309 H         1             0.0583
     38 H19        19.8569   12.4667   62.8419 H         1             0.0585
     39 H20        19.8579   11.1908   64.8613 H         1             0.3869
     40 H21        20.0568   15.5944   63.8434 H         1             0.1263
     41 H22        21.9240   17.1689   63.5307 H         1             0.1225
     42 H23        22.5225   17.3654   61.6802 H         1             0.1332
     43 H24        23.1932   17.3782   60.0165 H         1             0.1309
@<TRIPOS>BOND
     1    1    2 1 
     2    1   21 1 
     3    2    3 1 
     4    2   22 1 
     5    2   23 1 
     6    3    4 1 
     7    3    6 1 
     8    3   24 1 
     9    4    5 1 
    10    4   25 1 
    11    4   26 1 
    12    5   27 1 
    13    6    7 1 
    14    6   20 1 
    15    6    8 1 
    16    8    9 1 
    17    8   28 1 
    18    8   29 1 
    19    9   10 1 
    20    9   30 1 
    21    9   31 1 
    22   10   11 1 
    23   10   20 1 
    24   10   32 1 
    25   11   12 1 
    26   11   33 1 
    27   11   34 1 
    28   12   19 ar
    29   12   13 ar
    30   13   14 ar
    31   13   35 1 
    32   14   15 ar
    33   14   36 1 
    34   15   16 1 
    35   15   18 ar
    36   16   17 1 
    37   16   37 1 
    38   16   38 1 
    39   17   39 1 
    40   18   19 ar
    41   18   40 1 
    42   19   41 1 
    43   20   42 1 
    44   20   43 1 
##########                 Name:             E2464811
##########          Protonation:                   54
##########               SMILES:   Cc1ccc2c(c1)nc([nH]2)/C(=C\C=C/c3ccccc3)/C#N
##########            Long Name:   (2Z,4Z)-2-(5-methyl-1H-benzimidazol-2-yl)-5-phenyl-penta-2,4-dienenitrile
##########          FlexRecCode: 1
##########               Number:                   90
##########   Ligand Source File: /raidb/db2/rgc/leads-emolecules-300/leads-emolecules-2a-0000311.db2.gz
##########           GlobalRank: 3956
##########                 Rank:                    1
##########               Setnum:                    5
##########             Matchnum:                 4361
##########                Cloud:                    1
##########        Electrostatic:            -5.005667
##########        Van der Waals:           -33.622093
##########  Ligand Polar Desolv:             3.741936
########## Ligand Apolar Desolv:            -5.265655
##########      Internal Energy:             0.000000
##########      Receptor Energy: 0.0
########## Receptor Desolvation:             0.000000
########## Receptor Hydrophobic:             0.000000
##########         Total Energy: -40.15
##########        Ligand Charge:             0.000000
##########            Arbitrary:    +999.9990
##########     heavy atom count:   22
##########           pose count:    1
##########        Ligand Energy:             0.000000
# num electro vdwattr vdwrepu polsolv apolsol rdesolv rhydroe totalscore fullpol fullapo
#   1   -1.49   -1.64    0.39   -0.17   -0.13    0.00    0.00      -3.04   -0.25   -0.20
#   2   -1.24   -2.53    0.71    0.03   -0.25    0.00    0.00      -3.29    0.04   -0.40
#   3   -0.69   -3.24    1.05   -0.01   -0.30    0.00    0.00      -3.19   -0.01   -0.45
#   4   -0.31   -3.62    1.22    0.09   -0.31    0.00    0.00      -2.94    0.13   -0.47
#   5    0.37   -2.54    0.58   -0.04   -0.49    0.00    0.00      -2.12   -0.07   -0.78
#   6   -3.76   -2.95    1.67    0.94    0.68    0.00    0.00      -3.42    1.60    1.15
#   7    2.83   -1.75    0.28   -0.62   -1.20    0.00    0.00      -0.47   -1.09   -2.11
#   8   -6.03   -1.93    0.30    1.16    0.83    0.00    0.00      -5.67    2.00    1.43
#   9    0.77   -2.20    0.51   -0.04   -0.49    0.00    0.00      -1.44   -0.06   -0.79
#  10   -1.08   -2.66    0.83    0.13   -0.27    0.00    0.00      -3.04    0.22   -0.45
#  11   -0.25   -1.63    0.31    0.08   -0.24    0.00    0.00      -1.73    0.13   -0.41
#  12    0.11   -1.61    0.47    0.01   -0.15    0.00    0.00      -1.18    0.02   -0.35
#  13   -1.12   -2.57    1.60   -0.04   -0.19    0.00    0.00      -2.33   -0.09   -0.42
#  14    0.04   -2.20    0.87    0.00   -0.21    0.00    0.00      -1.50    0.00   -0.46
#  15    0.55   -1.06    0.07   -0.05   -0.15    0.00    0.00      -0.64   -0.13   -0.37
#  16    1.56   -0.99    0.06   -0.04   -0.14    0.00    0.00       0.45   -0.09   -0.35
#  17    2.10   -1.26    0.22   -0.03   -0.16    0.00    0.00       0.85   -0.10   -0.47
#  18    1.18   -0.94    0.09   -0.04   -0.14    0.00    0.00       0.15   -0.14   -0.47
#  19    0.82   -0.83    0.06   -0.06   -0.14    0.00    0.00      -0.16   -0.22   -0.47
#  20    0.51   -1.13    0.12   -0.07   -0.16    0.00    0.00      -0.72   -0.20   -0.45
#  21    0.83   -2.28    0.60   -0.56   -0.88    0.00    0.00      -2.29   -0.91   -1.43
#  22   -2.28   -4.94    3.82    1.74    0.46    0.00    0.00      -1.19    2.67    0.71
#  23    0.81   -0.50    0.10    0.13   -0.16    0.00    0.00       0.39    0.23   -0.28
#  24    1.23   -0.88    0.70    0.18   -0.17    0.00    0.00       1.06    0.30   -0.28
#  25    0.70   -0.41    0.07    0.09   -0.13    0.00    0.00       0.33    0.20   -0.28
#  26    0.58   -0.86    0.36    0.31   -0.17    0.00    0.00       0.23    0.52   -0.28
#  27   -0.46   -1.14    0.54    0.12   -0.18    0.00    0.00      -1.13    0.18   -0.28
#  28    2.23   -0.14    0.05   -0.20    0.30    0.00    0.00       2.24   -0.39    0.58
#  29    2.01   -0.74    0.40   -0.08   -0.15    0.00    0.00       1.44   -0.14   -0.28
#  30   -0.11   -0.34    0.21    0.05   -0.05    0.00    0.00      -0.23    0.20   -0.18
#  31    2.71   -1.00    1.60   -0.10   -0.06    0.00    0.00       3.16   -0.23   -0.15
#  32   -0.35   -0.78    0.55    0.37   -0.13    0.00    0.00      -0.35    0.77   -0.28
#  33   -2.24   -0.21    0.01    0.05   -0.06    0.00    0.00      -2.45    0.19   -0.22
#  34   -3.48   -0.63    0.64    0.09   -0.09    0.00    0.00      -3.47    0.28   -0.28
#  35   -1.15   -0.19    0.02    0.09   -0.06    0.00    0.00      -1.30    0.39   -0.28
#  36   -0.62   -0.13    0.01    0.07   -0.03    0.00    0.00      -0.72    0.53   -0.28
#  37   -0.27   -0.34    0.08    0.18   -0.08    0.00    0.00      -0.43    0.63   -0.28
@<TRIPOS>MOLECULE
E2464811
   37    39     0     0     0
SMALL
USER_CHARGES


@<TRIPOS>ATOM
      1 C1         13.7894   16.3662   65.7140 C.3       1            -0.1125
      2 C2         15.1729   15.7694   65.7397 C.ar      1            -0.0905
      3 C3         15.5857   15.0398   66.8456 C.ar      1            -0.0960
      4 C4         16.8484   14.4863   66.8868 C.ar      1            -0.1081
      5 C5         17.7112   14.6604   65.8140 C.ar      1             0.0501
      6 N1         19.0032   14.2493   65.5464 N.pl3     1            -0.5962
      7 C6         19.3330   14.7321   64.3064 C.2       1             0.3460
      8 N2         18.3214   15.4076   63.8110 N.2       1            -0.4770
      9 C7         17.2930   15.3993   64.6926 C.ar      1             0.0568
     10 C8         16.0058   15.9474   64.6718 C.ar      1            -0.0666
     11 C9         20.6258   14.5253   63.6324 C.2       1            -0.0530
     12 C10        21.4041   15.6122   63.2818 C.2       1             0.0376
     13 C11        21.0416   16.9024   63.7060 C.2       1            -0.1753
     14 C12        21.8052   17.9688   63.3621 C.2       1            -0.0420
     15 C13        22.9026   17.8063   62.3984 C.ar      1            -0.0824
     16 C14        22.9028   18.5341   61.2028 C.ar      1            -0.1117
     17 C15        23.9361   18.3759   60.3042 C.ar      1            -0.1210
     18 C16        24.9716   17.5004   60.5815 C.ar      1            -0.1101
     19 C17        24.9790   16.7760   61.7614 C.ar      1            -0.1194
     20 C18        23.9565   16.9271   62.6737 C.ar      1            -0.0982
     21 C19        21.0765   13.1979   63.3401 C.1       1             0.2473
     22 N3         21.4342   12.1448   63.1082 N.1       1            -0.4039
     23 H1         13.2720   16.1242   66.6425 H         1             0.0715
     24 H2         13.8626   17.4488   65.6105 H         1             0.0678
     25 H3         13.2328   15.9574   64.8707 H         1             0.0681
     26 H4         14.9137   14.9048   67.6802 H         1             0.1319
     27 H5         17.1645   13.9201   67.7505 H         1             0.1248
     28 H6         19.5706   13.7187   66.1273 H         1             0.4238
     29 H7         15.6727   16.5136   63.8145 H         1             0.1319
     30 H8         22.2910   15.4705   62.6818 H         1             0.1445
     31 H9         20.1549   17.0441   64.3060 H         1             0.1900
     32 H10        21.6068   18.9375   63.7964 H         1             0.1377
     33 H11        22.0955   19.2177   60.9848 H         1             0.1283
     34 H12        23.9376   18.9364   59.3812 H         1             0.1261
     35 H13        25.7781   17.3809   59.8732 H         1             0.1246
     36 H14        25.7902   16.0942   61.9698 H         1             0.1265
     37 H15        23.9661   16.3652   63.5959 H         1             0.1287
@<TRIPOS>BOND
     1    1    2 1 
     2    1   23 1 
     3    1   24 1 
     4    1   25 1 
     5    2   10 ar
     6    2    3 ar
     7    3    4 ar
     8    3   26 1 
     9    4    5 ar
    10    4   27 1 
    11    5    9 ar
    12    5    6 1 
    13    6    7 1 
    14    6   28 1 
    15    7    8 2 
    16    7   11 1 
    17    8    9 1 
    18    9   10 ar
    19   10   29 1 
    20   11   12 2 
    21   11   21 1 
    22   12   13 1 
    23   12   30 1 
    24   13   14 2 
    25   13   31 1 
    26   14   15 1 
    27   14   32 1 
    28   15   20 ar
    29   15   16 ar
    30   16   17 ar
    31   16   33 1 
    32   17   18 ar
    33   17   34 1 
    34   18   19 ar
    35   18   35 1 
    36   19   20 ar
    37   19   36 1 
    38   20   37 1 
    39   21   22 3 
##########                 Name:             E4278930
##########          Protonation:                   77
##########               SMILES:   CN(C)CC(=O)Nc1nc(cs1)c2ccc(cc2)Cl
##########            Long Name:   N-[4-(4-chlorophenyl)thiazol-2-yl]-2-(dimethylamino)acetamide
##########          FlexRecCode: 1
##########               Number:                  519
##########   Ligand Source File: /raidb/db2/rgc/leads-emolecules-300/leads-emolecules-2h-0000059.db2.gz
##########           GlobalRank: 3956
##########                 Rank:                    1
##########               Setnum:                   71
##########             Matchnum:                 6796
##########                Cloud:                    1
##########        Electrostatic:            -8.660324
##########        Van der Waals:           -32.011856
##########  Ligand Polar Desolv:             3.715288
########## Ligand Apolar Desolv:            -3.191873
##########      Internal Energy:             0.000000
##########      Receptor Energy: 0.0
########## Receptor Desolvation:             0.000000
########## Receptor Hydrophobic:             0.000000
##########         Total Energy: -40.15
##########        Ligand Charge:             0.000000
##########            Arbitrary:    +999.9990
##########     heavy atom count:   19
##########           pose count:    1
##########        Ligand Energy:             0.000000
# num electro vdwattr vdwrepu polsolv apolsol rdesolv rhydroe totalscore fullpol fullapo
#   1   -0.38   -0.63    0.05    0.03   -0.17    0.00    0.00      -1.11    0.09   -0.51
#   2    6.79   -0.94    0.05   -0.20    1.35    0.00    0.00       7.04   -0.50    3.40
#   3   -0.21   -1.16    0.43    0.00   -0.19    0.00    0.00      -1.13   -0.01   -0.49
#   4   -0.28   -0.77    0.06    0.08   -0.16    0.00    0.00      -1.07    0.20   -0.42
#   5   -0.52   -1.43    0.20    0.03   -0.27    0.00    0.00      -1.98    0.08   -0.63
#   6   -1.68   -2.16    0.93    1.10    0.14    0.00    0.00      -1.67    2.39    0.30
#   7   -0.27   -1.47    0.26   -0.28    0.71    0.00    0.00      -1.05   -0.65    1.67
#   8    1.20   -1.68    0.37   -0.41   -1.14    0.00    0.00      -1.65   -0.80   -2.22
#   9   -4.16   -1.74    0.36    0.97    0.93    0.00    0.00      -3.64    1.87    1.79
#  10    0.82   -1.90    0.37   -0.12   -0.42    0.00    0.00      -1.26   -0.21   -0.72
#  11   -0.72   -2.99    1.48    0.12   -0.16    0.00    0.00      -2.26    0.19   -0.25
#  12    0.51   -3.92    1.12   -0.13   -0.47    0.00    0.00      -2.89   -0.21   -0.75
#  13   -0.19   -2.30    0.83    0.05   -0.25    0.00    0.00      -1.85    0.08   -0.41
#  14   -0.58   -2.82    0.80   -0.02   -0.28    0.00    0.00      -2.90   -0.03   -0.44
#  15   -0.88   -2.86    0.78    0.01   -0.30    0.00    0.00      -3.25    0.01   -0.46
#  16   -0.40   -2.52    0.85    0.05   -0.18    0.00    0.00      -2.20    0.08   -0.29
#  17   -0.82   -4.28    1.09    0.09   -0.65    0.00    0.00      -4.57    0.14   -0.98
#  18   -1.60   -2.93    1.06    0.12   -0.27    0.00    0.00      -3.62    0.20   -0.46
#  19   -1.02   -2.72    1.03    0.12   -0.27    0.00    0.00      -2.85    0.20   -0.46
#  20   -1.03   -0.31    0.08    0.04   -0.06    0.00    0.00      -1.30    0.16   -0.28
#  21   -0.93   -0.12    0.00    0.05   -0.03    0.00    0.00      -1.03    0.41   -0.28
#  22   -0.71   -0.26    0.04    0.06   -0.07    0.00    0.00      -0.93    0.23   -0.28
#  23   -0.27   -0.69    0.90    0.02   -0.09    0.00    0.00      -0.13    0.07   -0.28
#  24   -1.96   -0.49    0.16   -0.07   -0.08    0.00    0.00      -2.44   -0.16   -0.20
#  25   -0.97   -0.28    0.06   -0.01   -0.07    0.00    0.00      -1.28   -0.05   -0.28
#  26   -0.50   -0.19    0.02    0.14   -0.05    0.00    0.00      -0.58    0.81   -0.28
#  27   -0.67   -0.41    0.08    0.40   -0.10    0.00    0.00      -0.70    1.13   -0.28
#  28   -0.60   -0.02    0.00    0.60    0.16    0.00    0.00       0.14    2.23    0.59
#  29   -0.40   -1.06    0.84    0.47   -0.14    0.00    0.00      -0.28    0.81   -0.24
#  30    0.29   -0.75    0.28    0.39   -0.13    0.00    0.00       0.09    0.65   -0.22
#  31    0.56   -0.69    0.17    0.20   -0.16    0.00    0.00       0.07    0.34   -0.28
#  32    1.18   -0.95    1.01   -0.02   -0.16    0.00    0.00       1.05   -0.04   -0.28
#  33    1.72   -0.67    0.34   -0.16   -0.14    0.00    0.00       1.09   -0.32   -0.27
@<TRIPOS>MOLECULE
E4278930
   33    34     0     0     0
SMALL
USER_CHARGES


@<TRIPOS>ATOM
      1 C1         23.9543   19.7227   61.2249 C.3       1             0.0241
      2 N1         23.0956   18.5535   61.4568 N.3       1            -0.5312
      3 C2         23.1578   17.6217   60.3229 C.3       1             0.0138
      4 C3         23.4519   17.8795   62.7123 C.3       1             0.0436
      5 C4         22.2970   17.0259   63.1695 C.2       1             0.5146
      6 O1         21.2223   17.5359   63.4054 O.2       1            -0.4753
      7 N2         22.4585   15.6960   63.3160 N.am      1            -0.6115
      8 C5         21.3937   14.9091   63.7375 C.2       1             0.3181
      9 N3         20.1599   15.2665   64.0414 N.2       1            -0.5328
     10 C6         19.2614   14.3743   64.4302 C.2       1             0.1149
     11 C7         19.6183   13.0575   64.5185 C.2       1            -0.2378
     12 S1         21.3288   13.1429   64.0043 S.3       1             0.1271
     13 C8         17.8811   14.7998   64.7671 C.ar      1            -0.0185
     14 C9         17.3734   14.5779   66.0461 C.ar      1            -0.0921
     15 C10        16.0886   14.9757   66.3544 C.ar      1            -0.1095
     16 C11        15.3039   15.5937   65.3958 C.ar      1            -0.0307
     17 Cl1        13.6880   16.0912   65.7899 Cl        1            -0.0680
     18 C12        15.8036   15.8168   64.1242 C.ar      1            -0.1125
     19 C13        17.0891   15.4280   63.8073 C.ar      1            -0.0749
     20 H1         23.8897   20.3963   62.0794 H         1             0.0775
     21 H2         24.9864   19.3959   61.0972 H         1             0.0729
     22 H3         23.6243   20.2435   60.3260 H         1             0.0308
     23 H4         22.5130   16.7654   60.5205 H         1             0.0256
     24 H5         22.8224   18.1280   59.4177 H         1             0.0847
     25 H6         24.1844   17.2804   60.1890 H         1             0.0748
     26 H7         24.3273   17.2503   62.5513 H         1             0.0768
     27 H8         23.6761   18.6257   63.4746 H         1             0.1169
     28 H9         23.3181   15.2881   63.1274 H         1             0.4274
     29 H10        19.0288   12.2018   64.8127 H         1             0.2002
     30 H11        17.9846   14.0952   66.7944 H         1             0.1355
     31 H12        15.6943   14.8042   67.3452 H         1             0.1379
     32 H13        15.1875   16.2994   63.3798 H         1             0.1362
     33 H14        17.4796   15.6065   62.8163 H         1             0.1413
@<TRIPOS>BOND
     1    1    2 1 
     2    1   20 1 
     3    1   21 1 
     4    1   22 1 
     5    2    3 1 
     6    2    4 1 
     7    3   23 1 
     8    3   24 1 
     9    3   25 1 
    10    4    5 1 
    11    4   26 1 
    12    4   27 1 
    13    5    6 2 
    14    5    7 am
    15    7    8 1 
    16    7   28 1 
    17    8   12 1 
    18    8    9 2 
    19    9   10 1 
    20   10   11 2 
    21   10   13 1 
    22   11   12 1 
    23   11   29 1 
    24   13   19 ar
    25   13   14 ar
    26   14   15 ar
    27   14   30 1 
    28   15   16 ar
    29   15   31 1 
    30   16   17 1 
    31   16   18 ar
    32   18   19 ar
    33   18   32 1 
    34   19   33 1 
##########                 Name:            E44315676
##########          Protonation:                   60
##########               SMILES:   c1cc(cnc1)CN2C[C@@H]3C[NH+](C[C@H]3C2)CC4CCC4
##########            Long Name:   l)-5-(3-pyridylmethyl)-2,3,3a,4,6,6a-hexahydro-1H-pyrrolo[3,4-c]pyrrol-2-ium
##########          FlexRecCode: 1
##########               Number:                  690
##########   Ligand Source File: /raidb/db2/rgc/leads-emolecules-300/leads-emolecules-lt300-1f-0000140.db2.gz
##########           GlobalRank: 3971
##########                 Rank:                    1
##########               Setnum:                   71
##########             Matchnum:                  837
##########                Cloud:                    1
##########        Electrostatic:           -24.658398
##########        Van der Waals:           -22.561226
##########  Ligand Polar Desolv:             9.149696
########## Ligand Apolar Desolv:            -2.072254
##########      Internal Energy:             0.000000
##########      Receptor Energy: 0.0
########## Receptor Desolvation:             0.000000
########## Receptor Hydrophobic:             0.000000
##########         Total Energy: -40.14
##########        Ligand Charge:             1.000000
##########            Arbitrary:    +999.9990
##########     heavy atom count:   20
##########           pose count:    1
##########        Ligand Energy:             0.000000
# num electro vdwattr vdwrepu polsolv apolsol rdesolv rhydroe totalscore fullpol fullapo
#   1   -0.09   -1.08    0.27    0.26   -0.11    0.00    0.00      -0.76    0.76   -0.32
#   2    1.44   -0.49    0.03   -0.63   -0.06    0.00    0.00       0.29   -2.47   -0.22
#   3    0.68   -0.42    0.02   -0.78   -0.08    0.00    0.00      -0.58   -3.03   -0.33
#   4    0.38   -0.38    0.01   -0.81   -0.08    0.00    0.00      -0.88   -3.36   -0.34
#   5    0.94   -0.70    0.19   -0.72   -0.08    0.00    0.00      -0.39   -2.83   -0.33
#   6   10.31   -1.82    1.51   -4.35    0.17    0.00    0.00       5.80  -12.19    0.47
#   7  -18.07   -0.21    0.14    5.60    0.20    0.00    0.00     -12.33   15.92    0.56
#   8   -0.53   -1.13    0.23    0.45   -0.18    0.00    0.00      -1.16    1.04   -0.42
#   9    2.17   -0.66    0.03   -1.52   -0.07    0.00    0.00      -0.05   -3.69   -0.18
#  10   -0.47   -0.91    0.24    0.47   -0.21    0.00    0.00      -0.88    1.12   -0.50
#  11    2.48   -1.30    0.42   -3.42    1.28    0.00    0.00      -0.54   -9.50    3.57
#  12    0.01   -1.07    0.19    0.65   -0.16    0.00    0.00      -0.38    1.52   -0.37
#  13   -0.39   -1.68    0.40   -0.57   -0.17    0.00    0.00      -2.40   -1.19   -0.36
#  14    0.26   -2.09    0.51    0.16   -0.52    0.00    0.00      -1.68    0.29   -0.95
#  15   -2.00   -2.75    0.60   -1.12    1.30    0.00    0.00      -3.98   -1.77    2.05
#  16    0.35   -2.39    0.47    0.06   -0.62    0.00    0.00      -2.14    0.09   -0.98
#  17   -1.07   -1.76    0.28   -0.95   -0.28    0.00    0.00      -3.79   -1.61   -0.48
#  18   -0.46   -1.62    0.31   -0.38   -0.22    0.00    0.00      -2.38   -0.76   -0.43
#  19   -0.45   -0.59    0.05    0.29   -0.12    0.00    0.00      -0.82    0.97   -0.40
#  20    1.84   -0.58    0.04   -1.04   -0.07    0.00    0.00       0.18   -3.33   -0.21
#  21   -0.29   -0.57    0.07    0.39   -0.13    0.00    0.00      -0.53    1.39   -0.46
#  22   -2.92   -0.63    0.86    1.55   -0.08    0.00    0.00      -1.22    5.10   -0.27
#  23   -3.06   -0.69    0.57    1.72   -0.10    0.00    0.00      -1.56    4.88   -0.28
#  24   -0.69   -0.11    0.00    0.41   -0.03    0.00    0.00      -0.41    3.72   -0.23
#  25   -0.66   -0.15    0.01    0.36   -0.04    0.00    0.00      -0.47    2.46   -0.27
#  26   -0.01   -0.13    0.01    0.24   -0.04    0.00    0.00       0.07    1.73   -0.28
#  27   -0.18   -0.14    0.01    0.03   -0.04    0.00    0.00      -0.33    0.18   -0.28
#  28   -0.04   -0.09    0.00    0.06   -0.03    0.00    0.00      -0.09    0.70   -0.28
#  29   -0.54   -0.17    0.03    0.14   -0.04    0.00    0.00      -0.59    0.89   -0.28
#  30   -0.60   -0.54    0.56    0.55   -0.08    0.00    0.00      -0.12    1.88   -0.28
#  31   -3.40   -0.39    0.08    1.84   -0.08    0.00    0.00      -1.95    4.95   -0.22
#  32   -3.85   -0.55    0.20    2.00   -0.12    0.00    0.00      -2.31    4.86   -0.28
#  33   -1.05   -0.24    0.02    0.71   -0.07    0.00    0.00      -0.62    2.83   -0.27
#  34   -0.16   -0.27    0.05    0.35   -0.07    0.00    0.00      -0.11    1.24   -0.26
#  35   -0.94   -0.60    0.68    0.53   -0.10    0.00    0.00      -0.43    1.51   -0.28
#  36    0.02   -0.49    0.24    0.48   -0.09    0.00    0.00       0.15    1.43   -0.27
#  37    0.14   -0.45    0.13    0.39   -0.10    0.00    0.00       0.12    1.05   -0.27
#  38   -0.07   -0.44    0.10    0.44   -0.12    0.00    0.00      -0.09    1.03   -0.28
#  39   -0.03   -0.80    0.43    0.58   -0.17    0.00    0.00       0.01    0.95   -0.28
#  40    1.16   -0.42    0.14    0.79   -0.11    0.00    0.00       1.56    2.07   -0.28
#  41    1.46   -0.38    0.10    1.11   -0.09    0.00    0.00       2.20    3.18   -0.27
#  42   -0.45   -0.33    0.11    0.42   -0.06    0.00    0.00      -0.31    1.80   -0.25
#  43   -0.62   -0.14    0.01    0.09   -0.04    0.00    0.00      -0.70    0.71   -0.28
#  44   -1.88   -0.30    0.06    0.76   -0.08    0.00    0.00      -1.43    2.70   -0.28
#  45   -1.91   -0.16    0.02    0.78   -0.04    0.00    0.00      -1.31    5.66   -0.28
#  46   -1.40   -0.15    0.01    0.78   -0.04    0.00    0.00      -0.80    5.11   -0.27
@<TRIPOS>MOLECULE
E44315676
   46    49     0     0     0
SMALL
USER_CHARGES


@<TRIPOS>ATOM
      1 C1         23.8134   21.6880   60.3422 C.3       1             0.0045
      2 C2         25.2588   22.1516   60.5349 C.3       1            -0.1485
      3 C3         25.4282   23.6792   60.4805 C.3       1            -0.1464
      4 C4         26.7219   23.4285   59.6877 C.3       1            -0.1420
      5 C5         26.1014   22.0913   59.2499 C.3       1            -0.1265
      6 N1         23.8022   20.2768   59.9346 N.4       1            -0.4014
      7 H1         24.0007   20.2033   58.9481 H         1             0.4286
      8 C6         22.4633   19.6735   60.2297 C.3       1             0.0224
      9 C7         22.7299   18.6782   61.3123 C.3       1            -0.1561
     10 C8         22.0391   17.3825   61.5927 C.3       1             0.0632
     11 N2         23.1041   16.5068   62.1777 N.3       1            -0.5112
     12 C9         22.8020   16.1733   63.5760 C.3       1             0.0923
     13 C10        21.7901   15.0574   63.6191 C.ar      1            -0.1433
     14 C11        22.2032   13.7386   63.6447 C.ar      1             0.1242
     15 N3         21.3237   12.7570   63.6830 N.ar      1            -0.4816
     16 C12        20.0255   12.9891   63.6983 C.ar      1             0.1073
     17 C13        19.5384   14.2820   63.6745 C.ar      1            -0.1718
     18 C14        20.4332   15.3408   63.6395 C.ar      1            -0.0705
     19 C15        24.4079   17.2429   62.0697 C.3       1             0.0609
     20 C16        24.1646   18.1624   60.8921 C.3       1            -0.1389
     21 C17        24.8288   19.5123   60.7188 C.3       1             0.0190
     22 H2         23.2680   21.8000   61.2793 H         1             0.1306
     23 H3         23.3376   22.2930   59.5704 H         1             0.1270
     24 H4         25.7409   21.6878   61.3954 H         1             0.1121
     25 H5         24.6533   24.1840   59.9037 H         1             0.0909
     26 H6         25.5956   24.1349   61.4564 H         1             0.0786
     27 H7         26.8732   24.1291   58.8665 H         1             0.0811
     28 H8         27.6046   23.3151   60.3168 H         1             0.0897
     29 H9         26.8124   21.2651   59.2323 H         1             0.0821
     30 H10        25.5106   22.1621   58.3366 H         1             0.0918
     31 H11        21.7701   20.4388   60.5788 H         1             0.1371
     32 H12        22.0672   19.1756   59.3445 H         1             0.1362
     33 H13        22.8363   19.2123   62.2565 H         1             0.0920
     34 H14        21.2314   17.5296   62.3096 H         1             0.0827
     35 H15        21.6550   16.9490   60.6694 H         1             0.0966
     36 H16        23.7152   15.8552   64.0791 H         1             0.0513
     37 H17        22.3969   17.0510   64.0795 H         1             0.0967
     38 H18        23.2586   13.5095   63.6329 H         1             0.1560
     39 H19        19.3352   12.1591   63.7294 H         1             0.1595
     40 H20        18.4741   14.4656   63.6873 H         1             0.1378
     41 H21        20.0814   16.3617   63.6248 H         1             0.1271
     42 H22        24.6050   17.8168   62.9752 H         1             0.0632
     43 H23        25.2259   16.5536   61.8607 H         1             0.1005
     44 H24        24.1365   17.6051   59.9558 H         1             0.1208
     45 H25        25.7568   19.4188   60.1546 H         1             0.1413
     46 H26        25.0075   19.9830   61.6856 H         1             0.1335
@<TRIPOS>BOND
     1    1    2 1 
     2    1    6 1 
     3    1   22 1 
     4    1   23 1 
     5    2    5 1 
     6    2    3 1 
     7    2   24 1 
     8    3    4 1 
     9    3   25 1 
    10    3   26 1 
    11    4    5 1 
    12    4   27 1 
    13    4   28 1 
    14    5   29 1 
    15    5   30 1 
    16    6    7 1 
    17    6   21 1 
    18    6    8 1 
    19    8    9 1 
    20    8   31 1 
    21    8   32 1 
    22    9   20 1 
    23    9   10 1 
    24    9   33 1 
    25   10   11 1 
    26   10   34 1 
    27   10   35 1 
    28   11   12 1 
    29   11   19 1 
    30   12   13 1 
    31   12   36 1 
    32   12   37 1 
    33   13   18 ar
    34   13   14 ar
    35   14   15 ar
    36   14   38 1 
    37   15   16 ar
    38   16   17 ar
    39   16   39 1 
    40   17   18 ar
    41   17   40 1 
    42   18   41 1 
    43   19   20 1 
    44   19   42 1 
    45   19   43 1 
    46   20   21 1 
    47   20   44 1 
    48   21   45 1 
    49   21   46 1 
##########                 Name:             E2544283
##########          Protonation:                   85
##########               SMILES:   CCC[NH+]1CCN(CC1)CC(=O)Nc2ccc(cc2F)F
##########            Long Name:   N-(2,4-difluorophenyl)-2-(4-propylpiperazin-4-ium-1-yl)acetamide
##########          FlexRecCode: 1
##########               Number:                  394
##########   Ligand Source File: /raidb/db2/rgc/leads-emolecules-300/leads-emolecules-lt300-2i-0000003.db2.gz
##########           GlobalRank: 3971
##########                 Rank:                    1
##########               Setnum:                  350
##########             Matchnum:                 2339
##########                Cloud:                    1
##########        Electrostatic:           -26.514709
##########        Van der Waals:           -20.045769
##########  Ligand Polar Desolv:             8.504311
########## Ligand Apolar Desolv:            -2.082559
##########      Internal Energy:             0.000000
##########      Receptor Energy: 0.0
########## Receptor Desolvation:             0.000000
########## Receptor Hydrophobic:             0.000000
##########         Total Energy: -40.14
##########        Ligand Charge:             1.000000
##########            Arbitrary:    +999.9990
##########     heavy atom count:   21
##########           pose count:    1
##########        Ligand Energy:             0.000000
# num electro vdwattr vdwrepu polsolv apolsol rdesolv rhydroe totalscore fullpol fullapo
#   1    0.35   -0.41    0.02   -0.86   -0.05    0.00    0.00      -0.94   -3.55   -0.19
#   2    1.46   -1.04    0.31   -1.19   -0.07    0.00    0.00      -0.52   -3.65   -0.23
#   3    0.29   -0.66    0.17   -0.04   -0.07    0.00    0.00      -0.31   -0.15   -0.29
#   4    9.80   -2.44    4.68   -3.52    0.14    0.00    0.00       8.66  -10.91    0.43
#   5  -20.12   -0.47    0.78    5.59    0.20    0.00    0.00     -14.02   16.06    0.56
#   6    0.10   -0.83    0.15    0.05   -0.13    0.00    0.00      -0.66    0.16   -0.41
#   7   -0.32   -1.02    0.27    0.14   -0.13    0.00    0.00      -1.05    0.44   -0.39
#   8    5.94   -1.33    0.17   -4.77    1.17    0.00    0.00       1.17  -12.31    3.03
#   9   -0.19   -1.90    0.59    0.45   -0.19    0.00    0.00      -1.24    1.00   -0.42
#  10   -0.62   -2.14    0.54    3.38   -0.28    0.00    0.00       0.88    7.45   -0.61
#  11   -0.14   -2.96    1.82   -2.82    0.12    0.00    0.00      -3.97   -6.38    0.27
#  12   -1.38   -1.83    0.47   -3.92    0.74    0.00    0.00      -5.92   -8.69    1.64
#  13    0.45   -1.65    0.38    0.52   -0.31    0.00    0.00      -0.61    1.17   -0.69
#  14   -0.13   -1.73    0.54   -0.33   -0.20    0.00    0.00      -1.85   -0.69   -0.41
#  15   -0.43   -2.12    0.48   -0.56   -0.28    0.00    0.00      -2.91   -0.94   -0.47
#  16    0.45   -2.13    0.35    0.14   -0.21    0.00    0.00      -1.40    0.23   -0.34
#  17    0.09   -2.41    1.32   -0.34   -0.32    0.00    0.00      -1.67   -0.51   -0.48
#  18   -1.10   -1.84    0.35   -0.62   -0.27    0.00    0.00      -3.49   -1.05   -0.46
#  19    0.98   -1.69    0.29    0.26   -0.17    0.00    0.00      -0.34    0.50   -0.34
#  20   -2.85   -1.94    2.23   -0.52   -0.25    0.00    0.00      -3.34   -0.97   -0.47
#  21   -0.20   -0.56    0.03    0.06   -0.13    0.00    0.00      -0.81    0.16   -0.37
#  22   -0.02   -1.16    0.35    0.27   -0.16    0.00    0.00      -0.72    0.72   -0.42
#  23    0.01   -0.17    0.02    0.18   -0.05    0.00    0.00      -0.03    0.94   -0.28
#  24   -0.10   -0.08    0.00    0.03   -0.02    0.00    0.00      -0.17    0.39   -0.28
#  25   -0.16   -0.07    0.00    0.07   -0.02    0.00    0.00      -0.18    1.06   -0.28
#  26   -1.08   -0.86    0.87    1.07   -0.08    0.00    0.00      -0.07    2.91   -0.21
#  27   -0.92   -0.32    0.06    0.80   -0.08    0.00    0.00      -0.45    2.80   -0.28
#  28   -1.20   -0.10    0.00    0.47   -0.03    0.00    0.00      -0.86    4.50   -0.28
#  29   -1.20   -0.14    0.02    0.44   -0.02    0.00    0.00      -0.90    3.45   -0.15
#  30   -1.99   -0.17    0.02    1.03   -0.04    0.00    0.00      -1.16    5.56   -0.22
#  31   -3.62   -0.37    0.09    1.40   -0.09    0.00    0.00      -2.60    4.24   -0.28
#  32   -0.49   -0.21    0.02    0.47   -0.04    0.00    0.00      -0.25    2.36   -0.22
#  33   -1.71   -1.08    2.30    0.90   -0.09    0.00    0.00       0.32    2.87   -0.28
#  34   -0.40   -1.20    1.37    1.12   -0.12    0.00    0.00       0.77    2.63   -0.28
#  35   -0.55   -1.08    0.64    1.68   -0.15    0.00    0.00       0.54    3.24   -0.28
#  36    1.01   -0.03    0.00    2.25    0.19    0.00    0.00       3.42    6.79    0.56
#  37   -0.09   -0.27    0.03    0.47   -0.06    0.00    0.00       0.09    1.61   -0.19
#  38    0.53   -0.63    0.19    0.79   -0.15    0.00    0.00       0.73    1.50   -0.28
#  39    1.17   -0.61    0.56    0.39   -0.11    0.00    0.00       1.40    0.98   -0.28
#  40   -0.55   -0.13    0.00    0.24   -0.02    0.00    0.00      -0.46    1.99   -0.21
#  41   -1.20   -0.19    0.02    0.17   -0.04    0.00    0.00      -1.23    0.94   -0.20
#  42   -3.54   -0.37    0.07    1.33   -0.10    0.00    0.00      -2.62    3.67   -0.28
#  43   -2.81   -0.58    0.34    1.83   -0.10    0.00    0.00      -1.32    4.98   -0.28
@<TRIPOS>MOLECULE
E2544283
   43    44     0     0     0
SMALL
USER_CHARGES


@<TRIPOS>ATOM
      1 C1         27.7549   17.7360   59.5147 C.3       1            -0.1560
      2 C2         26.3250   18.1460   59.1564 C.3       1            -0.1485
      3 C3         25.8960   19.3222   60.0357 C.3       1            -0.0222
      4 N1         24.5232   19.7158   59.6916 N.4       1            -0.3851
      5 H1         24.4854   19.9898   58.7214 H         1             0.4286
      6 C4         24.1119   20.8454   60.5356 C.3       1            -0.0052
      7 C5         24.1869   20.4360   62.0082 C.3       1             0.0258
      8 N2         23.3048   19.2831   62.2387 N.3       1            -0.5203
      9 C6         23.3056   18.8947   63.6555 C.3       1             0.0366
     10 C7         22.8194   17.4743   63.7871 C.2       1             0.5172
     11 O1         23.5386   16.6301   64.2782 O.2       1            -0.5022
     12 N3         21.5854   17.1420   63.3590 N.am      1            -0.6621
     13 C8         21.1332   15.8211   63.4814 C.ar      1             0.0986
     14 C9         22.0384   14.7698   63.4386 C.ar      1            -0.0734
     15 C10        21.5911   13.4685   63.5598 C.ar      1            -0.1401
     16 C11        20.2403   13.2112   63.7237 C.ar      1             0.1227
     17 F1         19.8059   11.9373   63.8420 F         1            -0.1248
     18 C12        19.3343   14.2572   63.7669 C.ar      1            -0.1690
     19 C13        19.7779   15.5621   63.6517 C.ar      1             0.1040
     20 F2         18.8948   16.5835   63.6989 F         1            -0.1273
     21 C14        23.6890   18.1523   61.3823 C.3       1             0.0171
     22 C15        23.6182   18.5806   59.9152 C.3       1             0.0010
     23 H2         28.0604   16.8981   58.8882 H         1             0.0674
     24 H3         28.4266   18.5781   59.3484 H         1             0.0783
     25 H4         27.7960   17.4400   60.5630 H         1             0.0646
     26 H5         26.2838   18.4421   58.1082 H         1             0.0854
     27 H6         25.6531   17.3039   59.3227 H         1             0.0877
     28 H7         25.9372   19.0260   61.0840 H         1             0.1319
     29 H8         26.5678   20.1642   59.8695 H         1             0.1263
     30 H9         24.7763   21.6912   60.3595 H         1             0.1383
     31 H10        23.0888   21.1293   60.2891 H         1             0.1414
     32 H11        25.2125   20.1647   62.2586 H         1             0.0642
     33 H12        23.8674   21.2692   62.6340 H         1             0.1257
     34 H13        24.3179   18.9705   64.0524 H         1             0.0816
     35 H14        22.6455   19.5579   64.2145 H         1             0.1254
     36 H15        21.0102   17.8171   62.9661 H         1             0.4183
     37 H16        23.0920   14.9691   63.3101 H         1             0.1651
     38 H17        22.2957   12.6507   63.5264 H         1             0.1504
     39 H18        18.2812   14.0543   63.8945 H         1             0.1572
     40 H19        24.7065   17.8436   61.6223 H         1             0.0584
     41 H20        23.0064   17.3195   61.5514 H         1             0.1384
     42 H21        22.5976   18.8762   59.6719 H         1             0.1422
     43 H22        23.9165   17.7474   59.2789 H         1             0.1363
@<TRIPOS>BOND
     1    1    2 1 
     2    1   23 1 
     3    1   24 1 
     4    1   25 1 
     5    2    3 1 
     6    2   26 1 
     7    2   27 1 
     8    3    4 1 
     9    3   28 1 
    10    3   29 1 
    11    4    5 1 
    12    4   22 1 
    13    4    6 1 
    14    6    7 1 
    15    6   30 1 
    16    6   31 1 
    17    7    8 1 
    18    7   32 1 
    19    7   33 1 
    20    8    9 1 
    21    8   21 1 
    22    9   10 1 
    23    9   34 1 
    24    9   35 1 
    25   10   11 2 
    26   10   12 am
    27   12   13 1 
    28   12   36 1 
    29   13   19 ar
    30   13   14 ar
    31   14   15 ar
    32   14   37 1 
    33   15   16 ar
    34   15   38 1 
    35   16   17 1 
    36   16   18 ar
    37   18   19 ar
    38   18   39 1 
    39   19   20 1 
    40   21   22 1 
    41   21   40 1 
    42   21   41 1 
    43   22   42 1 
    44   22   43 1 
##########                 Name:            E46614189
##########          Protonation:                   94
##########               SMILES:   C[NH+]1CC[C@@](CC1)(O)CNc2ncncc2C(=O)[O-]
##########            Long Name:   4-hydroxy-1-methyl-piperidin-1-ium-4-yl)methylamino]pyrimidine-5-carboxylate
##########          FlexRecCode: 1
##########               Number:                  143
##########   Ligand Source File: /raidb/db2/rgc/leads-emolecules-300/leads-lt300-emolecules-1d-0000179.db2.gz
##########           GlobalRank: 3971
##########                 Rank:                    1
##########               Setnum:                   68
##########             Matchnum:                 1921
##########                Cloud:                    1
##########        Electrostatic:           -39.018147
##########        Van der Waals:           -24.226622
##########  Ligand Polar Desolv:            24.923689
########## Ligand Apolar Desolv:            -1.816826
##########      Internal Energy:             0.000000
##########      Receptor Energy: 0.0
########## Receptor Desolvation:             0.000000
########## Receptor Hydrophobic:             0.000000
##########         Total Energy: -40.14
##########        Ligand Charge:             0.000000
##########            Arbitrary:    +999.9990
##########     heavy atom count:   19
##########           pose count:    1
##########        Ligand Energy:             0.000000
# num electro vdwattr vdwrepu polsolv apolsol rdesolv rhydroe totalscore fullpol fullapo
#   1    1.21   -0.87    0.14   -0.55   -0.15    0.00    0.00      -0.22   -1.57   -0.44
#   2    8.96   -1.58    1.03   -2.73    0.20    0.00    0.00       5.88   -7.79    0.56
#   3  -15.94   -0.16    0.07    4.48    0.19    0.00    0.00     -11.35   13.04    0.56
#   4    0.05   -1.18    0.23    0.16   -0.18    0.00    0.00      -0.92    0.37   -0.41
#   5    1.57   -0.72    0.05   -0.81   -0.08    0.00    0.00       0.01   -1.88   -0.19
#   6   -0.89   -0.63    0.04    0.34   -0.02    0.00    0.00      -1.15    0.92   -0.05
#   7    3.71   -1.37    0.67   -0.79    0.52    0.00    0.00       2.75   -2.32    1.53
#   8   -0.19   -1.14    0.19    0.03   -0.16    0.00    0.00      -1.27    0.08   -0.37
#   9   -2.00   -1.80    0.44    2.05    0.68    0.00    0.00      -0.64    4.58    1.52
#  10    1.31   -1.67    0.40   -2.49   -0.97    0.00    0.00      -3.43   -5.30   -2.06
#  11   -1.45   -1.64    0.29    3.98   -0.24    0.00    0.00       0.94    6.81   -0.41
#  12    0.71   -2.30    0.40   -2.04   -0.59    0.00    0.00      -3.82   -3.23   -0.94
#  13   -3.03   -3.87    1.75    4.45    1.31    0.00    0.00       0.62    7.07    2.08
#  14    0.21   -2.97    1.26   -1.40   -1.72    0.00    0.00      -4.62   -2.57   -3.17
#  15   -0.38   -1.85    0.43    2.19    0.93    0.00    0.00       1.32    4.57    1.93
#  16    4.92   -1.68    0.23   -6.78   -0.10    0.00    0.00      -3.42  -12.09   -0.17
#  17   -5.72   -2.67    1.83   12.91   -0.24    0.00    0.00       6.10   21.66   -0.41
#  18  -11.80   -2.22    1.06    7.95   -0.18    0.00    0.00      -5.19   15.18   -0.34
#  19    1.69   -0.63    0.07   -0.53   -0.05    0.00    0.00       0.55   -1.80   -0.18
#  20    0.03   -0.55    0.05    0.12   -0.11    0.00    0.00      -0.47    0.44   -0.41
#  21   -2.03   -0.31    0.09    0.76   -0.07    0.00    0.00      -1.55    3.27   -0.28
#  22   -1.85   -0.17    0.01    0.77   -0.05    0.00    0.00      -1.28    4.34   -0.28
#  23   -3.35   -0.43    0.13    0.64   -0.05    0.00    0.00      -3.07    1.85   -0.15
#  24   -3.56   -0.53    0.18    2.03   -0.11    0.00    0.00      -1.99    4.99   -0.28
#  25   -2.81   -0.62    0.48    0.91   -0.11    0.00    0.00      -2.15    2.23   -0.26
#  26   -1.34   -0.26    0.02    0.69   -0.06    0.00    0.00      -0.94    2.57   -0.22
#  27   -1.01   -0.26    0.03    0.33   -0.08    0.00    0.00      -0.98    1.13   -0.28
#  28   -3.62   -0.03    0.00    0.01    0.31    0.00    0.00      -3.33    0.03    1.10
#  29   -0.06   -0.52    0.22    0.11   -0.10    0.00    0.00      -0.35    0.30   -0.28
#  30   -0.16   -0.52    0.12   -0.03   -0.12    0.00    0.00      -0.70   -0.06   -0.28
#  31    3.17   -0.03    0.00   -1.25    0.07    0.00    0.00       1.95   -3.73    0.21
#  32    0.24   -0.58    0.13   -1.50   -0.16    0.00    0.00      -1.87   -2.52   -0.27
#  33   -0.66   -0.92    1.03   -0.21   -0.13    0.00    0.00      -0.88   -0.44   -0.28
#  34   -0.86   -0.27    0.04    0.35   -0.05    0.00    0.00      -0.79    1.52   -0.22
#  35   -1.02   -0.29    0.13   -0.02   -0.04    0.00    0.00      -1.24   -0.11   -0.23
#  36   -1.65   -0.19    0.02    0.42   -0.06    0.00    0.00      -1.47    1.94   -0.26
#  37   -1.39   -0.11    0.01    0.35   -0.03    0.00    0.00      -1.18    3.24   -0.28
@<TRIPOS>MOLECULE
E46614189
   37    38     0     0     0
SMALL
USER_CHARGES


@<TRIPOS>ATOM
      1 C1         23.7134   20.6324   60.7268 C.3       1            -0.0594
      2 N1         23.9558   19.3979   59.9684 N.4       1            -0.3802
      3 H1         24.2296   19.6317   59.0259 H         1             0.4261
      4 C2         22.7263   18.5967   59.9346 C.3       1            -0.0021
      5 C3         22.2629   18.3063   61.3637 C.3       1            -0.1301
      6 C4         23.3583   17.5320   62.1024 C.3       1             0.1183
      7 O1         23.5661   16.2710   61.4630 O.3       1            -0.5571
      8 C5         22.9341   17.3055   63.5548 C.3       1             0.1025
      9 N2         21.6880   16.5357   63.5852 N.pl3     1            -0.7019
     10 C6         21.7294   15.1594   63.6244 C.ar      1             0.4511
     11 C7         20.5366   14.4036   63.6482 C.ar      1            -0.2995
     12 C8         20.6438   13.0090   63.6874 C.ar      1             0.1987
     13 N3         21.8458   12.4594   63.7005 N.ar      1            -0.5698
     14 C9         22.9374   13.2008   63.6774 C.ar      1             0.3215
     15 N4         22.8931   14.5162   63.6352 N.ar      1            -0.5971
     16 C10        19.2218   15.0622   63.6327 C.2       1             0.5434
     17 O2         18.2003   14.3894   63.6539 O.co2     1            -0.6639
     18 O3         19.1496   16.2831   63.5986 O.co2     1            -0.6990
     19 C11        24.6562   18.3443   62.0669 C.3       1            -0.1827
     20 C12        25.0297   18.6325   60.6127 C.3       1            -0.0019
     21 H2         23.4173   20.3810   61.7453 H         1             0.1230
     22 H3         24.6250   21.2294   60.7503 H         1             0.1225
     23 H4         22.9176   21.2029   60.2475 H         1             0.1257
     24 H5         21.9486   19.1478   59.4058 H         1             0.1295
     25 H6         22.9198   17.6568   59.4177 H         1             0.1373
     26 H7         22.0689   19.2457   61.8815 H         1             0.1026
     27 H8         21.3508   17.7099   61.3364 H         1             0.1206
     28 H9         23.8400   16.3393   60.5382 H         1             0.4011
     29 H10        23.7145   16.7543   64.0794 H         1             0.0709
     30 H11        22.7787   18.2678   64.0423 H         1             0.0754
     31 H12        20.8338   16.9952   63.5776 H         1             0.4253
     32 H13        19.7581   12.3914   63.7070 H         1             0.1701
     33 H14        23.9001   12.7117   63.6897 H         1             0.1865
     34 H15        24.5118   19.2843   62.5992 H         1             0.0991
     35 H16        25.4548   17.7749   62.5422 H         1             0.1267
     36 H17        25.1740   17.6916   60.0814 H         1             0.1360
     37 H18        25.9538   19.2098   60.5849 H         1             0.1309
@<TRIPOS>BOND
     1    1    2 1 
     2    1   21 1 
     3    1   22 1 
     4    1   23 1 
     5    2    3 1 
     6    2   20 1 
     7    2    4 1 
     8    4    5 1 
     9    4   24 1 
    10    4   25 1 
    11    5    6 1 
    12    5   26 1 
    13    5   27 1 
    14    6    7 1 
    15    6    8 1 
    16    6   19 1 
    17    7   28 1 
    18    8    9 1 
    19    8   29 1 
    20    8   30 1 
    21    9   10 1 
    22    9   31 1 
    23   10   15 ar
    24   10   11 ar
    25   11   12 ar
    26   11   16 1 
    27   12   13 ar
    28   12   32 1 
    29   13   14 ar
    30   14   15 ar
    31   14   33 1 
    32   16   17 1 
    33   16   18 2 
    34   19   20 1 
    35   19   34 1 
    36   19   35 1 
    37   20   36 1 
    38   20   37 1 
##########                 Name:            E31707984
##########          Protonation:                  100
##########               SMILES:   COc1ccc(cc1OCc2ccc3ccccc3n2)N
##########            Long Name:   4-methoxy-3-(2-quinolylmethoxy)aniline
##########          FlexRecCode: 1
##########               Number:                  335
##########   Ligand Source File: /raidb/db2/rgc/leads-emolecules-300/leads-lt300-emolecules-1j-0000095.db2.gz
##########           GlobalRank: 3971
##########                 Rank:                    1
##########               Setnum:                   50
##########             Matchnum:                 2151
##########                Cloud:                    1
##########        Electrostatic:            -8.431764
##########        Van der Waals:           -34.035744
##########  Ligand Polar Desolv:             5.272364
########## Ligand Apolar Desolv:            -2.943223
##########      Internal Energy:             0.000000
##########      Receptor Energy: 0.0
########## Receptor Desolvation:             0.000000
########## Receptor Hydrophobic:             0.000000
##########         Total Energy: -40.14
##########        Ligand Charge:             0.000000
##########            Arbitrary:    +999.9990
##########     heavy atom count:   21
##########           pose count:    1
##########        Ligand Energy:             0.000000
# num electro vdwattr vdwrepu polsolv apolsol rdesolv rhydroe totalscore fullpol fullapo
#   1   -0.24   -0.94    0.13    0.00    0.01    0.00    0.00      -1.04   -0.01    0.03
#   2    0.23   -1.79    0.51    0.83    0.29    0.00    0.00       0.06    1.79    0.62
#   3    0.07   -1.68    0.37    0.00   -0.14    0.00    0.00      -1.39   -0.01   -0.31
#   4    0.08   -1.62    0.33    0.10   -0.18    0.00    0.00      -1.29    0.24   -0.42
#   5    0.08   -1.84    0.47    0.09   -0.21    0.00    0.00      -1.42    0.19   -0.46
#   6    0.44   -2.04    0.53   -0.14   -0.40    0.00    0.00      -1.60   -0.26   -0.73
#   7   -4.70   -4.62    3.15   -1.02    0.56    0.00    0.00      -6.63   -1.66    0.91
#   8   -1.03   -1.68    0.42    0.42   -0.24    0.00    0.00      -2.11    0.73   -0.42
#   9    0.87   -1.68    0.38   -0.27   -0.14    0.00    0.00      -0.84   -0.59   -0.31
#  10   -4.59   -2.20    1.33    0.91    0.25    0.00    0.00      -4.31    1.82    0.50
#  11    1.36   -1.65    0.56   -0.26   -0.06    0.00    0.00      -0.05   -0.48   -0.11
#  12    2.30   -2.34    0.59   -0.47   -0.45    0.00    0.00      -0.37   -0.80   -0.75
#  13   -1.65   -2.12    0.40    0.52   -0.28    0.00    0.00      -3.14    0.82   -0.44
#  14   -0.44   -2.70    0.65    0.08   -0.30    0.00    0.00      -2.70    0.13   -0.46
#  15   -1.07   -2.79    1.31    0.31   -0.26    0.00    0.00      -2.50    0.49   -0.40
#  16   -0.75   -3.02    0.93    0.01   -0.30    0.00    0.00      -3.12    0.02   -0.46
#  17   -1.06   -2.57    0.73   -0.08   -0.31    0.00    0.00      -3.29   -0.12   -0.47
#  18   -0.96   -2.27    0.61    0.00   -0.30    0.00    0.00      -2.92    0.00   -0.47
#  19   -0.92   -3.19    1.49    0.27   -0.28    0.00    0.00      -2.64    0.44   -0.46
#  20    1.69   -2.99    1.78   -0.29   -0.44    0.00    0.00      -0.24   -0.48   -0.73
#  21   -6.47   -3.18    0.98    2.06    1.13    0.00    0.00      -5.47    3.46    1.89
#  22   -1.22   -0.45    0.12    0.06   -0.10    0.00    0.00      -1.58    0.17   -0.28
#  23   -0.57   -0.16    0.01    0.01   -0.05    0.00    0.00      -0.76    0.08   -0.26
#  24   -0.41   -0.30    0.07    0.02   -0.08    0.00    0.00      -0.69    0.08   -0.26
#  25   -0.38   -0.33    0.07    0.04   -0.06    0.00    0.00      -0.67    0.14   -0.22
#  26   -0.30   -0.36    0.07    0.10   -0.10    0.00    0.00      -0.59    0.28   -0.28
#  27    1.30   -0.14    0.02    0.91    0.33    0.00    0.00       2.42    1.60    0.59
#  28    2.80   -0.08    0.00    0.81    0.36    0.00    0.00       3.90    1.31    0.59
#  29    0.63   -0.30    0.03   -0.07   -0.10    0.00    0.00       0.19   -0.15   -0.22
#  30    0.88   -0.91    1.10   -0.14   -0.13    0.00    0.00       0.80   -0.28   -0.26
#  31    0.64   -0.52    0.21   -0.12   -0.12    0.00    0.00       0.09   -0.28   -0.26
#  32    1.33   -0.41    0.08   -0.30   -0.11    0.00    0.00       0.60   -0.68   -0.24
#  33    0.34   -0.65    0.12    0.14   -0.17    0.00    0.00      -0.23    0.23   -0.28
#  34    0.42   -0.92    0.44    0.31   -0.17    0.00    0.00       0.09    0.51   -0.28
#  35    1.10   -0.93    1.05    0.41   -0.15    0.00    0.00       1.48    0.76   -0.28
#  36    1.07   -0.51    0.19    0.26   -0.13    0.00    0.00       0.88    0.55   -0.28
#  37    0.68   -1.39    2.02   -0.21   -0.16    0.00    0.00       0.95   -0.37   -0.28
@<TRIPOS>MOLECULE
E31707984
   37    39     0     0     0
SMALL
USER_CHARGES


@<TRIPOS>ATOM
      1 C1         21.9333   18.5704   62.2406 C.3       1             0.0282
      2 O1         21.9684   17.9217   63.5134 O.3       1            -0.3109
      3 C2         22.0148   16.5616   63.5126 C.ar      1             0.0437
      4 C3         23.2374   15.9102   63.5056 C.ar      1            -0.1212
      5 C4         23.2862   14.5290   63.5043 C.ar      1            -0.1948
      6 C5         22.1099   13.7912   63.5104 C.ar      1             0.2225
      7 N1         22.1609   12.3929   63.5095 N.pl3     1            -0.8770
      8 C6         20.8831   14.4410   63.5179 C.ar      1            -0.2515
      9 C7         20.8343   15.8253   63.5245 C.ar      1             0.1517
     10 O2         19.6338   16.4640   63.5370 O.3       1            -0.2989
     11 C8         18.5366   15.7954   62.9114 C.3       1             0.1107
     12 C9         17.4470   15.5608   63.9256 C.ar      1             0.1604
     13 C10        17.7878   15.0797   65.1880 C.ar      1            -0.1519
     14 C11        16.8136   14.8612   66.1200 C.ar      1            -0.0563
     15 C12        15.4797   15.1352   65.7631 C.ar      1            -0.1030
     16 C13        14.4249   14.9355   66.6683 C.ar      1            -0.0957
     17 C14        13.1481   15.2125   66.2854 C.ar      1            -0.1159
     18 C15        12.8735   15.6921   65.0061 C.ar      1            -0.0999
     19 C16        13.8713   15.8968   64.1037 C.ar      1            -0.0933
     20 C17        15.2029   15.6226   64.4619 C.ar      1             0.1314
     21 N2         16.2043   15.8199   63.5985 N.ar      1            -0.4716
     22 H1         21.8980   19.6504   62.3840 H         1             0.0978
     23 H2         22.8270   18.3083   61.6743 H         1             0.0520
     24 H3         21.0482   18.2475   61.6925 H         1             0.0521
     25 H4         24.1534   16.4824   63.5007 H         1             0.1354
     26 H5         24.2404   14.0230   63.4981 H         1             0.1252
     27 H6         23.0181   11.9389   63.5046 H         1             0.3997
     28 H7         21.3392   11.8775   63.5139 H         1             0.3984
     29 H8         19.9678   13.8678   63.5223 H         1             0.1346
     30 H9         18.1507   16.4118   62.0996 H         1             0.0882
     31 H10        18.8739   14.8388   62.5126 H         1             0.0883
     32 H11        18.8213   14.8795   65.4294 H         1             0.1510
     33 H12        17.0597   14.4883   67.1033 H         1             0.1424
     34 H13        14.6253   14.5639   67.6624 H         1             0.1315
     35 H14        12.3375   15.0583   66.9821 H         1             0.1290
     36 H15        11.8523   15.9045   64.7262 H         1             0.1314
     37 H16        13.6411   16.2683   63.1160 H         1             0.1361
@<TRIPOS>BOND
     1    1    2 1 
     2    1   22 1 
     3    1   23 1 
     4    1   24 1 
     5    2    3 1 
     6    3    9 ar
     7    3    4 ar
     8    4    5 ar
     9    4   25 1 
    10    5    6 ar
    11    5   26 1 
    12    6    7 1 
    13    6    8 ar
    14    7   27 1 
    15    7   28 1 
    16    8    9 ar
    17    8   29 1 
    18    9   10 1 
    19   10   11 1 
    20   11   12 1 
    21   11   30 1 
    22   11   31 1 
    23   12   21 ar
    24   12   13 ar
    25   13   14 ar
    26   13   32 1 
    27   14   15 ar
    28   14   33 1 
    29   15   20 ar
    30   15   16 ar
    31   16   17 ar
    32   16   34 1 
    33   17   18 ar
    34   17   35 1 
    35   18   19 ar
    36   18   36 1 
    37   19   20 ar
    38   19   37 1 
    39   20   21 ar
##########                 Name:            E45731622
##########          Protonation:                   98
##########               SMILES:   c1ccc2c(c1)cc([nH]c2=O)C(=O)N3CCc4c3cccc4
##########            Long Name:   3-(indoline-1-carbonyl)-2H-isoquinolin-1-one
##########          FlexRecCode: 1
##########               Number:                  625
##########   Ligand Source File: /raidb/db2/rgc/leads-emolecules-300/leads-emolecules-3-cm-0000012.db2.gz
##########           GlobalRank: 3990
##########                 Rank:                    1
##########               Setnum:                    1
##########             Matchnum:                 2850
##########                Cloud:                    1
##########        Electrostatic:            -6.190919
##########        Van der Waals:           -36.368713
##########  Ligand Polar Desolv:             6.392009
########## Ligand Apolar Desolv:            -3.960389
##########      Internal Energy:             0.000000
##########      Receptor Energy: 0.0
########## Receptor Desolvation:             0.000000
########## Receptor Hydrophobic:             0.000000
##########         Total Energy: -40.13
##########        Ligand Charge:             0.000000
##########            Arbitrary:    +999.9990
##########     heavy atom count:   22
##########           pose count:    1
##########        Ligand Energy:             0.000000
# num electro vdwattr vdwrepu polsolv apolsol rdesolv rhydroe totalscore fullpol fullapo
#   1   -7.20   -2.91    1.15    2.28    0.21    0.00    0.00      -6.47    3.95    0.36
#   2    7.70   -2.04    0.39   -1.48   -0.38    0.00    0.00       4.21   -2.55   -0.65
#   3   -6.54   -2.15    0.47    0.97    1.07    0.00    0.00      -6.18    1.55    1.71
#   4    0.42   -1.90    0.55    0.04   -0.24    0.00    0.00      -1.13    0.07   -0.39
#   5   -0.40   -2.58    0.86   -0.16   -0.20    0.00    0.00      -2.48   -0.24   -0.30
#   6   -1.28   -2.88    0.91    0.03   -0.29    0.00    0.00      -3.51    0.04   -0.44
#   7    1.79   -2.60    1.02   -0.22   -0.44    0.00    0.00      -0.45   -0.34   -0.70
#   8   -1.55   -3.18    1.83    0.45   -0.26    0.00    0.00      -2.71    0.76   -0.44
#   9   -1.02   -2.59    0.85    0.13   -0.30    0.00    0.00      -2.92    0.20   -0.47
#  10   -1.48   -2.25    0.40   -0.04   -0.31    0.00    0.00      -3.68   -0.06   -0.47
#  11   -0.78   -3.14    1.16   -0.07   -0.31    0.00    0.00      -3.14   -0.10   -0.47
#  12    0.66   -1.61    0.21   -0.09   -0.39    0.00    0.00      -1.21   -0.17   -0.72
#  13   -0.73   -2.01    0.67    0.06   -0.21    0.00    0.00      -2.21    0.13   -0.44
#  14   -0.04   -1.63    0.35    0.03   -0.18    0.00    0.00      -1.47    0.06   -0.41
#  15    0.16   -1.58    0.25   -0.09   -0.20    0.00    0.00      -1.45   -0.20   -0.46
#  16    0.30   -1.88    0.64   -0.09   -0.17    0.00    0.00      -1.21   -0.25   -0.47
#  17    0.29   -1.71    0.47   -0.07   -0.18    0.00    0.00      -1.20   -0.19   -0.47
#  18    0.07   -1.98    0.56    0.07   -0.21    0.00    0.00      -1.49    0.16   -0.46
#  19   -0.20   -1.77    0.45    0.29   -0.20    0.00    0.00      -1.42    0.61   -0.41
#  20    1.89   -2.01    0.41   -1.65   -0.40    0.00    0.00      -1.77   -2.76   -0.67
#  21   -2.93   -3.44    1.31    2.95    0.28    0.00    0.00      -1.83    4.61    0.43
#  22   -3.12   -1.73    0.21    1.03    0.92    0.00    0.00      -2.69    1.71    1.52
#  23    0.02   -1.04    1.26    0.16   -0.13    0.00    0.00       0.27    0.30   -0.24
#  24    0.70   -0.71    0.47    0.14   -0.12    0.00    0.00       0.47    0.26   -0.24
#  25   -0.34   -1.10    0.43    0.46   -0.18    0.00    0.00      -0.73    0.71   -0.28
#  26    0.85   -1.49    1.97    0.45   -0.18    0.00    0.00       1.60    0.70   -0.28
#  27    1.41   -0.82    0.35   -0.44   -0.13    0.00    0.00       0.37   -0.78   -0.22
#  28    1.10   -0.62    0.22    0.01   -0.14    0.00    0.00       0.57    0.02   -0.28
#  29    1.30   -0.51    0.14    0.32   -0.16    0.00    0.00       1.10    0.57   -0.28
#  30    0.97   -1.13    1.00    0.45   -0.17    0.00    0.00       1.12    0.75   -0.28
#  31    2.53   -0.85    1.28   -0.03   -0.10    0.00    0.00       2.83   -0.07   -0.26
#  32   -0.42   -0.31    0.03    0.30   -0.10    0.00    0.00      -0.49    0.86   -0.28
#  33   -0.96   -0.56    0.53    0.31   -0.07    0.00    0.00      -0.75    1.24   -0.28
#  34   -0.37   -0.25    0.03    0.19   -0.07    0.00    0.00      -0.47    0.79   -0.28
#  35   -0.56   -0.60    0.38   -0.14   -0.11    0.00    0.00      -1.04   -0.34   -0.27
#  36    1.57   -0.03    0.00   -0.17    0.09    0.00    0.00       1.46   -0.33    0.18
@<TRIPOS>MOLECULE
E45731622
   36    39     0     0     0
SMALL
USER_CHARGES


@<TRIPOS>ATOM
      1 O1         17.6704   16.1585   62.9081 O.2       1            -0.4891
      2 C1         18.2119   15.5419   63.8056 C.2       1             0.5711
      3 N1         17.4976   15.1462   64.8777 N.am      1            -0.5510
      4 C2         18.0185   14.4007   66.0253 C.3       1             0.0746
      5 C3         17.1072   14.8636   67.1642 C.3       1            -0.0823
      6 C4         15.8490   15.2572   66.4343 C.ar      1            -0.1325
      7 C5         16.1355   15.3833   65.0849 C.ar      1             0.1374
      8 C6         15.1179   15.7026   64.1917 C.ar      1            -0.1247
      9 C7         13.8365   15.9236   64.6553 C.ar      1            -0.0929
     10 C8         13.5632   15.8277   66.0073 C.ar      1            -0.1331
     11 C9         14.5648   15.4900   66.8911 C.ar      1            -0.0785
     12 C10        19.6482   15.2220   63.7178 C.2       1             0.0756
     13 C11        20.5435   16.2373   63.6300 C.2       1            -0.0898
     14 C12        21.9709   15.9305   63.5426 C.ar      1            -0.0184
     15 C13        22.9352   16.9362   63.4508 C.ar      1            -0.1077
     16 C14        24.2675   16.5946   63.3711 C.ar      1            -0.0847
     17 C15        24.6597   15.2629   63.3812 C.ar      1            -0.1219
     18 C16        23.7247   14.2536   63.4707 C.ar      1            -0.0525
     19 C17        22.3716   14.5744   63.5527 C.ar      1            -0.1382
     20 C18        21.3347   13.5371   63.6508 C.2       1             0.5508
     21 O2         21.6436   12.3596   63.6622 O.2       1            -0.5200
     22 N2         20.0400   13.9009   63.7334 N.am      1            -0.6468
     23 H1         17.9227   13.3269   65.8650 H         1             0.0957
     24 H2         19.0553   14.6716   66.2246 H         1             0.0965
     25 H3         16.9124   14.0481   67.8606 H         1             0.1000
     26 H4         17.5388   15.7201   67.6822 H         1             0.1000
     27 H5         15.3303   15.7772   63.1355 H         1             0.1405
     28 H6         13.0469   16.1719   63.9615 H         1             0.1315
     29 H7         12.5627   16.0124   66.3696 H         1             0.1301
     30 H8         14.3469   15.4168   67.9464 H         1             0.1289
     31 H9         20.2052   17.2629   63.6242 H         1             0.1652
     32 H10        22.6385   17.9745   63.4420 H         1             0.1393
     33 H11        25.0147   17.3711   63.2997 H         1             0.1348
     34 H12        25.7088   15.0147   63.3178 H         1             0.1353
     35 H13        24.0392   13.2205   63.4770 H         1             0.1414
     36 H14        19.3619   13.2108   63.8016 H         1             0.4154
@<TRIPOS>BOND
     1    1    2 2 
     2    2    3 am
     3    2   12 1 
     4    3    7 1 
     5    3    4 1 
     6    4    5 1 
     7    4   23 1 
     8    4   24 1 
     9    5    6 1 
    10    5   25 1 
    11    5   26 1 
    12    6   11 ar
    13    6    7 ar
    14    7    8 ar
    15    8    9 ar
    16    8   27 1 
    17    9   10 ar
    18    9   28 1 
    19   10   11 ar
    20   10   29 1 
    21   11   30 1 
    22   12   22 1 
    23   12   13 2 
    24   13   14 1 
    25   13   31 1 
    26   14   19 ar
    27   14   15 ar
    28   15   16 ar
    29   15   32 1 
    30   16   17 ar
    31   16   33 1 
    32   17   18 ar
    33   17   34 1 
    34   18   19 ar
    35   18   35 1 
    36   19   20 1 
    37   20   21 2 
    38   20   22 am
    39   22   36 1 
##########                 Name:            E24861238
##########          Protonation:                  100
##########               SMILES:   c1n(nnc1CO)C[C@H]2CC[NH+](CC2)C[C@@H]3CC=CCC3
##########            Long Name:   -cyclohex-3-en-1-yl]methyl]piperidin-1-ium-4-yl]methyl]triazol-4-yl]methanol
##########          FlexRecCode: 1
##########               Number:                  181
##########   Ligand Source File: /raidb/db2/rgc/leads-emolecules-300/leads-emolecules-3-au-0000018.db2.gz
##########           GlobalRank: 4062
##########                 Rank:                    1
##########               Setnum:                  166
##########             Matchnum:                 3793
##########                Cloud:                    1
##########        Electrostatic:           -27.016386
##########        Van der Waals:           -22.792393
##########  Ligand Polar Desolv:            10.417655
########## Ligand Apolar Desolv:            -0.708226
##########      Internal Energy:             0.000000
##########      Receptor Energy: 0.0
########## Receptor Desolvation:             0.000000
########## Receptor Hydrophobic:             0.000000
##########         Total Energy: -40.1
##########        Ligand Charge:             1.000000
##########            Arbitrary:    +999.9990
##########     heavy atom count:   21
##########           pose count:    1
##########        Ligand Energy:             0.000000
# num electro vdwattr vdwrepu polsolv apolsol rdesolv rhydroe totalscore fullpol fullapo
#   1   -1.98   -2.62    1.03   -4.54    1.09    0.00    0.00      -7.03   -7.00    1.68
#   2    0.67   -1.35    0.24    0.97   -0.09    0.00    0.00       0.44    1.58   -0.15
#   3   -0.10   -1.58    0.27   -0.46   -0.43    0.00    0.00      -2.30   -0.84   -0.79
#   4   -0.10   -1.64    0.39    0.08   -0.44    0.00    0.00      -1.70    0.17   -0.94
#   5   -0.97   -1.90    0.54   -1.67    0.39    0.00    0.00      -3.62   -3.70    0.86
#   6   -0.20   -1.24    0.23    0.74   -0.18    0.00    0.00      -0.64    1.66   -0.40
#   7    0.94   -0.64    0.03   -0.97   -0.07    0.00    0.00      -0.71   -2.49   -0.18
#   8    1.32   -0.64    0.07   -1.08   -0.07    0.00    0.00      -0.39   -3.58   -0.23
#   9    0.16   -0.55    0.05    0.10   -0.10    0.00    0.00      -0.35    0.35   -0.37
#  10    8.34   -1.21    0.46   -4.18    0.09    0.00    0.00       3.50  -12.35    0.27
#  11  -13.60   -0.08    0.02    4.46    0.13    0.00    0.00      -9.07   15.54    0.44
#  12    0.12   -0.86    0.20    0.18   -0.10    0.00    0.00      -0.47    0.55   -0.32
#  13    0.90   -0.44    0.03   -0.64   -0.03    0.00    0.00      -0.19   -2.68   -0.14
#  14    0.89   -0.51    0.07   -0.57   -0.05    0.00    0.00      -0.17   -2.42   -0.22
#  15    0.86   -0.74    0.11   -0.49   -0.08    0.00    0.00      -0.35   -1.59   -0.26
#  16    0.98   -0.85    0.07   -0.83   -0.14    0.00    0.00      -0.78   -2.85   -0.47
#  17   -0.01   -1.06    0.18   -0.73   -0.14    0.00    0.00      -1.76   -2.54   -0.47
#  18   -0.01   -0.64    0.09   -0.64   -0.06    0.00    0.00      -1.25   -2.56   -0.22
#  19    0.46   -1.01    0.16   -0.21   -0.15    0.00    0.00      -0.75   -0.49   -0.35
#  20    1.79   -0.83    0.08   -1.51   -0.11    0.00    0.00      -0.59   -3.39   -0.24
#  21   -0.90   -3.52    3.66   -0.56    0.23    0.00    0.00      -1.09   -1.19    0.49
#  22   -3.12   -1.99    0.53   -0.89    0.61    0.00    0.00      -4.86   -1.74    1.20
#  23    0.08   -0.08    0.00    4.08    0.77    0.00    0.00       4.86    6.54    1.24
#  24    0.24   -0.52    0.19    0.33   -0.16    0.00    0.00       0.08    0.60   -0.28
#  25    0.38   -0.60    0.49    0.18   -0.13    0.00    0.00       0.32    0.39   -0.28
#  26    0.19   -0.29    0.04    1.70   -0.09    0.00    0.00       1.56    5.14   -0.28
#  27   -0.19   -0.63    0.24    1.13   -0.13    0.00    0.00       0.42    2.39   -0.28
#  28   -0.12   -0.50    0.17    2.17   -0.06    0.00    0.00       1.66    5.94   -0.17
#  29   -0.99   -0.22    0.04    0.07   -0.05    0.00    0.00      -1.15    0.38   -0.28
#  30   -0.88   -0.33    0.08    0.12   -0.06    0.00    0.00      -1.07    0.51   -0.26
#  31   -0.76   -0.22    0.05    0.44   -0.04    0.00    0.00      -0.54    2.75   -0.28
#  32   -1.33   -0.11    0.01    0.56   -0.02    0.00    0.00      -0.89    5.27   -0.21
#  33   -2.05   -0.23    0.03    1.30   -0.07    0.00    0.00      -1.02    5.59   -0.28
#  34   -2.79   -0.38    0.16    1.75   -0.08    0.00    0.00      -1.34    6.31   -0.28
#  35   -1.80   -0.43    0.21    1.38   -0.07    0.00    0.00      -0.71    5.49   -0.28
#  36   -0.56   -0.10    0.00    0.35   -0.02    0.00    0.00      -0.32    3.53   -0.22
#  37   -0.25   -0.09    0.00    0.22   -0.02    0.00    0.00      -0.15    2.47   -0.28
#  38   -1.01   -0.36    0.27    0.25   -0.06    0.00    0.00      -0.92    1.19   -0.28
#  39   -0.43   -0.21    0.02    0.28   -0.06    0.00    0.00      -0.40    1.22   -0.28
#  40   -1.36   -0.49    0.22    0.09   -0.09    0.00    0.00      -1.63    0.28   -0.28
#  41   -0.82   -0.16    0.01    0.03   -0.04    0.00    0.00      -0.99    0.17   -0.28
#  42    0.28   -0.26    0.04    0.22   -0.07    0.00    0.00       0.21    0.89   -0.28
#  43    0.19   -0.53    0.31    0.70   -0.08    0.00    0.00       0.59    2.60   -0.28
#  44    0.15   -0.11    0.00    0.41   -0.03    0.00    0.00       0.43    3.67   -0.24
#  45   -3.58   -0.51    0.25    2.22   -0.08    0.00    0.00      -1.71    5.89   -0.22
#  46   -3.33   -0.39    0.07    2.07   -0.08    0.00    0.00      -1.66    5.47   -0.21
#  47   -1.04   -0.30    0.07    0.91   -0.08    0.00    0.00      -0.45    3.08   -0.28
#  48   -1.69   -0.48    0.19    0.90   -0.09    0.00    0.00      -1.18    2.68   -0.28
@<TRIPOS>MOLECULE
E24861238
   48    50     0     0     0
SMALL
USER_CHARGES


@<TRIPOS>ATOM
      1 O1         20.5798   12.6732   64.4053 O.3       1            -0.5763
      2 C1         19.8133   13.4930   63.5207 C.3       1             0.1603
      3 C2         20.3273   14.9086   63.5758 C.2       1            -0.0161
      4 C3         21.6220   15.3020   63.5440 C.2       1            -0.0317
      5 N1         21.6075   16.6529   63.6172 N.pl3     1            -0.3024
      6 C4         22.7844   17.5255   63.6155 C.3       1             0.1133
      7 C5         23.1346   17.9066   62.1758 C.3       1            -0.1172
      8 C6         24.5853   18.3915   62.1115 C.3       1            -0.1434
      9 C7         24.9052   18.8261   60.6797 C.3       1            -0.0113
     10 N2         24.0062   19.9155   60.2795 N.4       1            -0.3829
     11 H1         24.2497   20.2258   59.3508 H         1             0.4232
     12 C8         24.1490   21.0349   61.2199 C.3       1            -0.0073
     13 C9         25.5955   21.5333   61.2037 C.3       1            -0.1161
     14 C10        25.9515   22.0488   59.8047 C.3       1            -0.1114
     15 C11        24.8627   23.0380   59.3844 C.3       1            -0.0980
     16 C12        24.6304   24.0620   60.4577 C.2       1            -0.1388
     17 C13        25.0183   23.9121   61.6858 C.2       1            -0.1713
     18 C14        25.7527   22.6998   62.1811 C.3       1            -0.0966
     19 C15        22.6139   19.4499   60.2874 C.3       1            -0.0201
     20 C16        22.2151   19.0368   61.7056 C.3       1            -0.1361
     21 N3         20.3820   17.0399   63.6882 N.2       1            -0.0747
     22 N4         19.5935   16.0239   63.6600 N.2       1            -0.2489
     23 H2         20.3037   11.7466   64.4212 H         1             0.3973
     24 H3         19.9038   13.1130   62.5032 H         1             0.0730
     25 H4         18.7665   13.4745   63.8239 H         1             0.0740
     26 H5         22.4918   14.6654   63.4747 H         1             0.1944
     27 H6         22.5687   18.4275   64.1881 H         1             0.1132
     28 H7         23.6262   17.0008   64.0675 H         1             0.0996
     29 H8         23.0090   17.0396   61.5272 H         1             0.1238
     30 H9         24.7175   19.2366   62.7870 H         1             0.1094
     31 H10        25.2537   17.5819   62.4046 H         1             0.1000
     32 H11        25.9380   19.1708   60.6276 H         1             0.1260
     33 H12        24.7716   17.9799   60.0056 H         1             0.1365
     34 H13        23.4822   21.8450   60.9245 H         1             0.1321
     35 H14        23.8912   20.7004   62.2248 H         1             0.1338
     36 H15        26.2684   20.7230   61.4843 H         1             0.0980
     37 H16        26.9178   22.5527   59.8314 H         1             0.0783
     38 H17        25.9855   21.2163   59.1018 H         1             0.0782
     39 H18        25.1695   23.5418   58.4678 H         1             0.0813
     40 H19        23.9359   22.4946   59.1998 H         1             0.0863
     41 H20        24.1131   24.9720   60.1925 H         1             0.1127
     42 H21        24.8016   24.7016   62.3902 H         1             0.1128
     43 H22        25.3533   22.4102   63.1531 H         1             0.0855
     44 H23        26.8108   22.9393   62.2871 H         1             0.0678
     45 H24        21.9610   20.2535   59.9469 H         1             0.1288
     46 H25        22.5140   18.5945   59.6192 H         1             0.1388
     47 H26        21.1816   18.6905   61.7075 H         1             0.1015
     48 H27        22.3152   19.8907   62.3757 H         1             0.1209
@<TRIPOS>BOND
     1    1    2 1 
     2    1   23 1 
     3    2    3 1 
     4    2   24 1 
     5    2   25 1 
     6    3   22 1 
     7    3    4 2 
     8    4    5 1 
     9    4   26 1 
    10    5    6 1 
    11    5   21 1 
    12    6    7 1 
    13    6   27 1 
    14    6   28 1 
    15    7   20 1 
    16    7    8 1 
    17    7   29 1 
    18    8    9 1 
    19    8   30 1 
    20    8   31 1 
    21    9   10 1 
    22    9   32 1 
    23    9   33 1 
    24   10   11 1 
    25   10   12 1 
    26   10   19 1 
    27   12   13 1 
    28   12   34 1 
    29   12   35 1 
    30   13   18 1 
    31   13   14 1 
    32   13   36 1 
    33   14   15 1 
    34   14   37 1 
    35   14   38 1 
    36   15   16 1 
    37   15   39 1 
    38   15   40 1 
    39   16   17 2 
    40   16   41 1 
    41   17   18 1 
    42   17   42 1 
    43   18   43 1 
    44   18   44 1 
    45   19   20 1 
    46   19   45 1 
    47   19   46 1 
    48   20   47 1 
    49   20   48 1 
    50   21   22 2 
##########                 Name:            E25961878
##########          Protonation:                   27
##########               SMILES:   [H]/N=C(\c1cccnc1)/NOC(=O)CSc2ccccc2
##########            Long Name:   (pyridine-3-carboximidoylamino)
##########          FlexRecCode: 1
##########               Number:                  473
##########   Ligand Source File: /raidb/db2/rgc/leads-emolecules-300/leads-emolecules-3-ay-0000003.db2.gz
##########           GlobalRank: 4062
##########                 Rank:                    1
##########               Setnum:                  306
##########             Matchnum:                 3337
##########                Cloud:                    1
##########        Electrostatic:            -6.560056
##########        Van der Waals:           -34.022327
##########  Ligand Polar Desolv:             4.785668
########## Ligand Apolar Desolv:            -4.305389
##########      Internal Energy:             0.000000
##########      Receptor Energy: 0.0
########## Receptor Desolvation:             0.000000
########## Receptor Hydrophobic:             0.000000
##########         Total Energy: -40.1
##########        Ligand Charge:             0.000000
##########            Arbitrary:    +999.9990
##########     heavy atom count:   20
##########           pose count:    1
##########        Ligand Energy:             0.000000
# num electro vdwattr vdwrepu polsolv apolsol rdesolv rhydroe totalscore fullpol fullapo
#   1    0.48   -3.35    2.70    0.90    0.56    0.00    0.00       1.29    2.18    1.35
#   2   -0.40   -2.07    0.81   -0.41   -0.95    0.00    0.00      -3.03   -0.95   -2.20
#   3   -0.04   -2.02    0.50    0.66    0.32    0.00    0.00      -0.59    1.33    0.64
#   4   -0.25   -1.41    0.22    0.14   -0.37    0.00    0.00      -1.67    0.25   -0.68
#   5    1.69   -2.07    0.38   -0.54   -0.10    0.00    0.00      -0.65   -0.88   -0.17
#   6   -2.57   -3.61    1.47    1.62   -0.24    0.00    0.00      -3.33    2.48   -0.37
#   7   -0.57   -1.54    0.48   -0.08   -0.06    0.00    0.00      -1.76   -0.13   -0.10
#   8   -0.27   -2.83    0.51    0.11   -0.42    0.00    0.00      -2.91    0.20   -0.75
#   9   -1.18   -2.15    0.44    0.11   -0.18    0.00    0.00      -2.96    0.18   -0.29
#  10   -2.15   -2.49    0.68   -0.04   -0.27    0.00    0.00      -4.26   -0.07   -0.44
#  11   -1.36   -2.50    0.73   -0.07   -0.29    0.00    0.00      -3.49   -0.12   -0.47
#  12   -0.98   -2.99    0.85   -0.08   -0.30    0.00    0.00      -3.50   -0.12   -0.47
#  13   -0.18   -3.95    1.46    0.01   -0.32    0.00    0.00      -2.98    0.01   -0.47
#  14   -0.48   -3.04    0.86    0.15   -0.30    0.00    0.00      -2.81    0.23   -0.46
#  15    0.38   -1.52    0.28    0.01   -0.16    0.00    0.00      -1.01    0.03   -0.41
#  16    0.29   -0.99    0.11   -0.04   -0.15    0.00    0.00      -0.77   -0.11   -0.44
#  17    1.75   -0.88    0.04   -0.21   -0.18    0.00    0.00       0.52   -0.57   -0.48
#  18   -1.08   -1.60    0.22    0.07   -0.40    0.00    0.00      -2.78    0.18   -0.98
#  19    1.52   -3.01    0.91    0.39    0.99    0.00    0.00       0.79    0.82    2.05
#  20   -0.03   -3.20    1.54   -0.06   -0.44    0.00    0.00      -2.18   -0.12   -0.93
#  21   -0.52   -0.05    0.00   -0.04    0.15    0.00    0.00      -0.47   -0.13    0.45
#  22   -0.81   -0.04    0.00   -0.27    0.16    0.00    0.00      -0.95   -0.61    0.37
#  23    0.64   -0.72    0.57    0.38   -0.15    0.00    0.00       0.71    0.69   -0.27
#  24    0.28   -0.67    0.32    0.36   -0.14    0.00    0.00       0.15    0.69   -0.27
#  25    2.07   -0.56    0.14    0.27   -0.11    0.00    0.00       1.81    0.50   -0.21
#  26    1.75   -0.42    0.06    0.28   -0.13    0.00    0.00       1.54    0.59   -0.28
#  27    0.90   -0.64    0.18    0.27   -0.15    0.00    0.00       0.56    0.50   -0.28
#  28   -0.72   -1.25    0.67    0.21   -0.19    0.00    0.00      -1.28    0.31   -0.28
#  29    0.42   -0.90    0.81   -0.12   -0.16    0.00    0.00       0.05   -0.20   -0.28
#  30   -1.00   -0.23    0.04    0.17   -0.05    0.00    0.00      -1.06    0.81   -0.22
#  31   -2.42   -0.17    0.01    0.30   -0.06    0.00    0.00      -2.34    1.49   -0.28
#  32   -2.34   -0.52    0.26    0.32   -0.09    0.00    0.00      -2.38    0.96   -0.28
#  33    0.61   -1.54    2.67    0.02   -0.12    0.00    0.00       1.65    0.04   -0.22
@<TRIPOS>MOLECULE
E25961878
   33    34     0     0     0
SMALL
USER_CHARGES


@<TRIPOS>ATOM
      1 N1         25.2000   14.7649   64.1016 N.2       1            -0.7309
      2 C1         23.9993   15.0503   63.6786 C.2       1             0.4742
      3 N2         23.0551   14.0603   63.5754 N.pl3     1            -0.5643
      4 O1         21.6840   14.3689   63.7474 O.3       1            -0.0815
      5 C2         20.8690   13.3150   63.6217 C.2       1             0.4612
      6 O2         21.3281   12.2187   63.3812 O.2       1            -0.4792
      7 C3         19.3806   13.4905   63.7791 C.3       1            -0.1269
      8 S1         19.0108   15.2312   64.1310 S.3       1            -0.0258
      9 C4         17.5499   15.1663   65.1140 C.ar      1            -0.1016
     10 C5         16.3865   15.7866   64.6747 C.ar      1            -0.1361
     11 C6         15.2436   15.7336   65.4478 C.ar      1            -0.0985
     12 C7         15.2558   15.0643   66.6580 C.ar      1            -0.1217
     13 C8         16.4119   14.4463   67.0988 C.ar      1            -0.0985
     14 C9         17.5569   14.4899   66.3281 C.ar      1            -0.0958
     15 C10        23.6556   16.4429   63.3095 C.ar      1            -0.1528
     16 C11        23.8336   16.8954   61.9979 C.ar      1            -0.0434
     17 C12        23.4968   18.2053   61.7044 C.ar      1            -0.1639
     18 C13        22.9998   19.0174   62.7078 C.ar      1             0.1207
     19 N3         22.8427   18.5626   63.9361 N.ar      1            -0.4768
     20 C14        23.1442   17.3226   64.2622 C.ar      1             0.1302
     21 H1         25.8675   15.4648   64.1744 H         1             0.3514
     22 H2         23.3270   13.1489   63.3848 H         1             0.4346
     23 H3         18.8800   13.1916   62.8582 H         1             0.1360
     24 H4         19.0267   12.8702   64.6027 H         1             0.1360
     25 H5         16.3764   16.3096   63.7298 H         1             0.1226
     26 H6         14.3391   16.2156   65.1071 H         1             0.1278
     27 H7         14.3605   15.0246   67.2606 H         1             0.1271
     28 H8         16.4179   13.9250   68.0445 H         1             0.1306
     29 H9         18.4579   14.0027   66.6704 H         1             0.1300
     30 H10        24.2241   16.2394   61.2340 H         1             0.1425
     31 H11        23.6211   18.5894   60.7027 H         1             0.1484
     32 H12        22.7363   20.0402   62.4822 H         1             0.1664
     33 H13        22.9973   16.9855   65.2777 H         1             0.1579
@<TRIPOS>BOND
     1    1    2 2 
     2    1   21 1 
     3    2    3 1 
     4    2   15 1 
     5    3    4 1 
     6    3   22 1 
     7    4    5 1 
     8    5    6 2 
     9    5    7 1 
    10    7    8 1 
    11    7   23 1 
    12    7   24 1 
    13    8    9 1 
    14    9   14 ar
    15    9   10 ar
    16   10   11 ar
    17   10   25 1 
    18   11   12 ar
    19   11   26 1 
    20   12   13 ar
    21   12   27 1 
    22   13   14 ar
    23   13   28 1 
    24   14   29 1 
    25   15   20 ar
    26   15   16 ar
    27   16   17 ar
    28   16   30 1 
    29   17   18 ar
    30   17   31 1 
    31   18   19 ar
    32   18   32 1 
    33   19   20 ar
    34   20   33 1 
##########                 Name:            E25961498
##########          Protonation:                   31
##########               SMILES:   [H]/N=C(/c1cccc(c1)C)\NOC(=O)c2ccccc2Cl
##########            Long Name:   [(3-methylbenzenecarboximidoyl)amino]
##########          FlexRecCode: 1
##########               Number:                  214
##########   Ligand Source File: /raidb/db2/rgc/leads-emolecules-300/leads-emolecules-3-ay-0000004.db2.gz
##########           GlobalRank: 4062
##########                 Rank:                    1
##########               Setnum:                   29
##########             Matchnum:                  548
##########                Cloud:                    1
##########        Electrostatic:            -5.078739
##########        Van der Waals:           -34.609634
##########  Ligand Polar Desolv:             4.680269
########## Ligand Apolar Desolv:            -5.090419
##########      Internal Energy:             0.000000
##########      Receptor Energy: 0.0
########## Receptor Desolvation:             0.000000
########## Receptor Hydrophobic:             0.000000
##########         Total Energy: -40.1
##########        Ligand Charge:             0.000000
##########            Arbitrary:    +999.9990
##########     heavy atom count:   20
##########           pose count:    1
##########        Ligand Energy:             0.000000
# num electro vdwattr vdwrepu polsolv apolsol rdesolv rhydroe totalscore fullpol fullapo
#   1    0.29   -2.04    0.66   -0.08   -0.10    0.00    0.00      -1.25   -0.16   -0.20
#   2    0.06   -1.85    0.41    0.03   -0.17    0.00    0.00      -1.53    0.08   -0.40
#   3    0.29   -1.48    0.29   -0.03   -0.17    0.00    0.00      -1.10   -0.08   -0.45
#   4    0.35   -1.49    0.28   -0.03   -0.20    0.00    0.00      -1.09   -0.08   -0.47
#   5    0.08   -2.13    1.04    0.06   -0.21    0.00    0.00      -1.16    0.13   -0.44
#   6   -0.13   -1.70    0.45    0.14   -0.21    0.00    0.00      -1.45    0.27   -0.41
#   7   -0.20   -2.06    0.81    0.12   -0.19    0.00    0.00      -1.53    0.26   -0.43
#   8    2.17   -1.71    0.26   -1.35   -1.31    0.00    0.00      -1.94   -2.26   -2.20
#   9   -2.37   -2.52    0.65    2.84    0.84    0.00    0.00      -0.56    4.45    1.31
#  10   -4.18   -2.06    0.52    1.46    0.37    0.00    0.00      -3.90    2.53    0.64
#  11   -0.87   -2.37    1.50    0.29   -0.34    0.00    0.00      -1.79    0.49   -0.57
#  12    6.43   -2.17    0.52   -1.35   -0.10    0.00    0.00       3.34   -2.19   -0.16
#  13   -9.65   -2.51    1.00    1.95   -0.19    0.00    0.00      -9.39    3.32   -0.32
#  14   -1.55   -2.69    1.22    0.21   -0.26    0.00    0.00      -3.07    0.33   -0.41
#  15   -0.65   -3.06    1.77   -0.05   -0.27    0.00    0.00      -2.26   -0.08   -0.46
#  16   -1.35   -2.47    1.01   -0.33   -0.30    0.00    0.00      -3.44   -0.52   -0.47
#  17   -0.61   -2.41    0.62   -0.15   -0.31    0.00    0.00      -2.86   -0.23   -0.47
#  18   -0.83   -3.35    1.11   -0.15   -0.30    0.00    0.00      -3.52   -0.23   -0.46
#  19    0.16   -3.02    0.91    0.01   -0.19    0.00    0.00      -2.14    0.01   -0.29
#  20   -0.01   -9.31    5.52    0.19   -0.62    0.00    0.00      -4.23    0.27   -0.89
#  21   -0.38   -0.72    0.38    0.06   -0.11    0.00    0.00      -0.77    0.16   -0.28
#  22   -0.33   -0.43    0.08    0.11   -0.12    0.00    0.00      -0.69    0.27   -0.28
#  23    0.01   -1.41    1.41    0.04   -0.16    0.00    0.00      -0.11    0.07   -0.28
#  24   -0.69   -0.30    0.08    0.12   -0.06    0.00    0.00      -0.84    0.59   -0.28
#  25   -0.65   -0.27    0.04    0.17   -0.08    0.00    0.00      -0.79    0.58   -0.28
#  26   -0.17   -0.66    0.36    0.02   -0.11    0.00    0.00      -0.56    0.04   -0.22
#  27    1.14   -0.67    0.57   -0.19   -0.10    0.00    0.00       0.75   -0.52   -0.27
#  28    0.87   -0.05    0.00   -1.04    0.32    0.00    0.00       0.10   -1.74    0.53
#  29    3.29   -0.06    0.00   -0.62    0.16    0.00    0.00       2.78   -1.42    0.37
#  30    1.38   -0.80    0.44    0.23   -0.15    0.00    0.00       1.09    0.41   -0.27
#  31    1.29   -0.51    0.13    0.73   -0.14    0.00    0.00       1.50    1.50   -0.28
#  32    1.25   -0.54    0.20    0.86   -0.14    0.00    0.00       1.62    1.70   -0.28
#  33    0.47   -1.27    1.24    0.39   -0.17    0.00    0.00       0.65    0.63   -0.28
@<TRIPOS>MOLECULE
E25961498
   33    34     0     0     0
SMALL
USER_CHARGES


@<TRIPOS>ATOM
      1 C1         23.0717   18.2456   64.0621 C.3       1            -0.1166
      2 C2         22.9777   16.7849   63.7035 C.ar      1            -0.0895
      3 C3         24.0828   16.1265   63.1939 C.ar      1            -0.0988
      4 C4         24.0042   14.7860   62.8625 C.ar      1            -0.1156
      5 C5         22.8213   14.0971   63.0386 C.ar      1            -0.1049
      6 C6         21.7044   14.7549   63.5520 C.ar      1            -0.0488
      7 C7         21.7914   16.1053   63.8893 C.ar      1            -0.0586
      8 C8         20.4319   14.0212   63.7429 C.2       1             0.4713
      9 N1         20.1312   13.0223   62.9596 N.2       1            -0.7322
     10 N2         19.5698   14.3921   64.7432 N.pl3     1            -0.6091
     11 O1         18.1762   14.1966   64.5855 O.3       1            -0.1161
     12 C9         17.4550   15.3284   64.6477 C.2       1             0.4908
     13 O2         17.9434   16.3808   64.2854 O.2       1            -0.4696
     14 C10        16.0688   15.2938   65.1562 C.ar      1            -0.1240
     15 C11        15.0111   15.6965   64.3379 C.ar      1            -0.0515
     16 C12        13.7193   15.6618   64.8188 C.ar      1            -0.1260
     17 C13        13.4685   15.2295   66.1098 C.ar      1            -0.0641
     18 C14        14.5099   14.8291   66.9265 C.ar      1            -0.1218
     19 C15        15.8087   14.8526   66.4561 C.ar      1             0.0223
     20 Cl1        17.1146   14.3424   67.4799 Cl        1            -0.0238
     21 H1         24.0771   18.6083   63.8480 H         1             0.0737
     22 H2         22.3487   18.8112   63.4744 H         1             0.0690
     23 H3         22.8574   18.3738   65.1231 H         1             0.0704
     24 H4         25.0104   16.6617   63.0541 H         1             0.1282
     25 H5         24.8699   14.2776   62.4648 H         1             0.1309
     26 H6         22.7608   13.0505   62.7788 H         1             0.1225
     27 H7         20.9306   16.6191   64.2913 H         1             0.1434
     28 H8         19.2978   12.5418   63.0847 H         1             0.3452
     29 H9         19.9146   14.7883   65.5586 H         1             0.4223
     30 H10        15.2047   16.0348   63.3306 H         1             0.1461
     31 H11        12.9008   15.9730   64.1866 H         1             0.1432
     32 H12        12.4546   15.2052   66.4809 H         1             0.1442
     33 H13        14.3072   14.4933   67.9327 H         1             0.1476
@<TRIPOS>BOND
     1    1    2 1 
     2    1   21 1 
     3    1   22 1 
     4    1   23 1 
     5    2    7 ar
     6    2    3 ar
     7    3    4 ar
     8    3   24 1 
     9    4    5 ar
    10    4   25 1 
    11    5    6 ar
    12    5   26 1 
    13    6    7 ar
    14    6    8 1 
    15    7   27 1 
    16    8    9 2 
    17    8   10 1 
    18    9   28 1 
    19   10   11 1 
    20   10   29 1 
    21   11   12 1 
    22   12   13 2 
    23   12   14 1 
    24   14   19 ar
    25   14   15 ar
    26   15   16 ar
    27   15   30 1 
    28   16   17 ar
    29   16   31 1 
    30   17   18 ar
    31   17   32 1 
    32   18   19 ar
    33   18   33 1 
    34   19   20 1 
##########                 Name:              E588687
##########          Protonation:                  100
##########               SMILES:   c1ccc2c(c1)cc(c(=O)o2)C(=O)Nc3ccc(cc3)Cl
##########            Long Name:   N-(4-chlorophenyl)-2-oxo-chromene-3-carboxamide
##########          FlexRecCode: 1
##########               Number:                  267
##########   Ligand Source File: /raidb/db2/rgc/leads-emolecules-300/leads-emolecules-3-cx-0000008.db2.gz
##########           GlobalRank: 4084
##########                 Rank:                    1
##########               Setnum:                    2
##########             Matchnum:                 6106
##########                Cloud:                    1
##########        Electrostatic:           -10.370269
##########        Van der Waals:           -29.760641
##########  Ligand Polar Desolv:             4.092455
########## Ligand Apolar Desolv:            -4.047550
##########      Internal Energy:             0.000000
##########      Receptor Energy: 0.0
########## Receptor Desolvation:             0.000000
########## Receptor Hydrophobic:             0.000000
##########         Total Energy: -40.09
##########        Ligand Charge:             0.000000
##########            Arbitrary:    +999.9990
##########     heavy atom count:   21
##########           pose count:    1
##########        Ligand Energy:             0.000000
# num electro vdwattr vdwrepu polsolv apolsol rdesolv rhydroe totalscore fullpol fullapo
#   1   -0.74   -4.24    1.19    0.13   -0.65    0.00    0.00      -4.32    0.19   -0.98
#   2   -0.64   -2.44    0.79    0.13   -0.19    0.00    0.00      -2.35    0.20   -0.30
#   3   -0.75   -2.88    0.82    0.10   -0.30    0.00    0.00      -3.01    0.15   -0.46
#   4   -0.93   -2.74    0.65    0.19   -0.30    0.00    0.00      -3.13    0.30   -0.46
#   5    1.72   -2.22    0.60   -0.36   -0.43    0.00    0.00      -0.69   -0.58   -0.68
#   6   -5.97   -1.88    0.29    1.76    0.95    0.00    0.00      -4.84    3.05    1.64
#   7    6.02   -1.73    0.30   -1.54   -0.33    0.00    0.00       2.72   -2.92   -0.63
#   8   -9.36   -2.76    2.45    1.95    0.18    0.00    0.00      -7.54    3.72    0.34
#   9   -1.32   -1.62    0.37    0.48   -0.21    0.00    0.00      -2.30    0.96   -0.42
#  10    0.01   -1.84    1.39    0.06   -0.18    0.00    0.00      -0.55    0.14   -0.44
#  11    0.51   -1.65    1.05   -0.16   -0.15    0.00    0.00      -0.40   -0.41   -0.40
#  12    0.26   -1.52    0.75   -0.05   -0.15    0.00    0.00      -0.72   -0.15   -0.45
#  13    0.80   -1.02    0.12   -0.35   -0.16    0.00    0.00      -0.60   -1.02   -0.47
#  14    0.18   -0.97    0.07   -0.06   -0.17    0.00    0.00      -0.95   -0.17   -0.47
#  15    0.48   -1.56    0.30   -0.19   -0.19    0.00    0.00      -1.16   -0.45   -0.46
#  16   -0.23   -1.67    0.35   -0.01   -0.13    0.00    0.00      -1.70   -0.03   -0.30
#  17   -0.57   -2.74    2.73    0.52   -0.04    0.00    0.00      -0.10    1.01   -0.07
#  18    2.04   -2.12    0.63   -1.35   -0.08    0.00    0.00      -0.89   -2.40   -0.15
#  19   -1.98   -2.63    1.27    2.02   -0.23    0.00    0.00      -1.55    3.23   -0.36
#  20   -1.60   -2.68    0.83    0.36   -0.24    0.00    0.00      -3.32    0.61   -0.40
#  21   -1.21   -3.02    1.19    0.20   -0.27    0.00    0.00      -3.12    0.33   -0.46
#  22    0.65   -0.71    0.19    0.06   -0.16    0.00    0.00       0.03    0.11   -0.28
#  23    0.36   -0.67    0.14    0.01   -0.17    0.00    0.00      -0.33    0.01   -0.28
#  24    2.50   -0.03    0.00   -0.75    0.17    0.00    0.00       1.88   -1.78    0.40
#  25   -0.26   -0.29    0.08    0.21   -0.08    0.00    0.00      -0.34    0.72   -0.27
#  26   -1.56   -0.30    0.10    0.43   -0.07    0.00    0.00      -1.39    1.78   -0.28
#  27   -0.85   -0.18    0.01    0.41   -0.06    0.00    0.00      -0.67    1.95   -0.28
#  28   -0.39   -0.14    0.01    0.26   -0.04    0.00    0.00      -0.30    1.83   -0.28
#  29   -0.40   -0.39    0.09    0.19   -0.09    0.00    0.00      -0.60    0.56   -0.28
#  30    1.92   -0.62    0.23   -0.39   -0.12    0.00    0.00       1.02   -0.74   -0.22
#  31    0.95   -1.07    1.59   -0.16   -0.16    0.00    0.00       1.16   -0.28   -0.28
@<TRIPOS>MOLECULE
E588687
   31    33     0     0     0
SMALL
USER_CHARGES


@<TRIPOS>ATOM
      1 Cl1        13.1972   15.9812   65.7664 Cl        1            -0.0685
      2 C1         14.8677   15.6314   65.4490 C.ar      1            -0.0502
      3 C2         15.6575   15.0761   66.4405 C.ar      1            -0.0884
      4 C3         16.9868   14.7968   66.1906 C.ar      1            -0.1306
      5 C4         17.5305   15.0732   64.9429 C.ar      1             0.1520
      6 N1         18.8766   14.7908   64.6871 N.am      1            -0.6644
      7 C5         19.5663   15.5398   63.8040 C.2       1             0.5839
      8 O1         19.0182   16.4613   63.2295 O.2       1            -0.5134
      9 C6         20.9830   15.2427   63.5348 C.2       1            -0.2863
     10 C7         21.7208   15.9999   62.6349 C.2       1             0.0926
     11 C8         23.0893   15.6735   62.4524 C.ar      1            -0.1730
     12 C9         23.8307   16.2657   61.4196 C.ar      1            -0.0383
     13 C10        25.1352   15.9096   61.2311 C.ar      1            -0.1419
     14 C11        25.7378   14.9715   62.0579 C.ar      1            -0.0459
     15 C12        25.0333   14.3908   63.0920 C.ar      1            -0.1363
     16 C13        23.7076   14.7427   63.3078 C.ar      1             0.1528
     17 O2         23.0180   14.2119   64.3462 O.3       1            -0.2673
     18 C14        21.6759   14.1332   64.2146 C.2       1             0.5287
     19 O3         21.0600   13.1744   64.6412 O.2       1            -0.4394
     20 C15        16.7355   15.6300   63.9496 C.ar      1            -0.1101
     21 C16        15.4056   15.9029   64.2032 C.ar      1            -0.0889
     22 H1         15.2341   14.8613   67.4105 H         1             0.1395
     23 H2         17.6029   14.3641   66.9650 H         1             0.1376
     24 H3         19.3135   14.0559   65.1452 H         1             0.4220
     25 H4         21.2661   16.8137   62.0895 H         1             0.1693
     26 H5         23.3712   17.0005   60.7754 H         1             0.1461
     27 H6         25.7032   16.3616   60.4314 H         1             0.1413
     28 H7         26.7677   14.6934   61.8899 H         1             0.1457
     29 H8         25.5114   13.6640   63.7321 H         1             0.1492
     30 H9         17.1559   15.8459   62.9785 H         1             0.1440
     31 H10        14.7860   16.3324   63.4300 H         1             0.1384
@<TRIPOS>BOND
     1    1    2 1 
     2    2   21 ar
     3    2    3 ar
     4    3    4 ar
     5    3   22 1 
     6    4    5 ar
     7    4   23 1 
     8    5    6 1 
     9    5   20 ar
    10    6    7 am
    11    6   24 1 
    12    7    8 2 
    13    7    9 1 
    14    9   18 1 
    15    9   10 2 
    16   10   11 1 
    17   10   25 1 
    18   11   16 ar
    19   11   12 ar
    20   12   13 ar
    21   12   26 1 
    22   13   14 ar
    23   13   27 1 
    24   14   15 ar
    25   14   28 1 
    26   15   16 ar
    27   15   29 1 
    28   16   17 1 
    29   17   18 1 
    30   18   19 2 
    31   20   21 ar
    32   20   30 1 
    33   21   31 1 
##########                 Name:            E23838653
##########          Protonation:                   95
##########               SMILES:   Cc1ncc(cc1)C[NH+]2CC[C@@H](CC2)Cc3ccc(cc3)F
##########            Long Name:   5-[[4-[(4-fluorophenyl)methyl]piperidin-1-ium-1-yl]methyl]-2-methyl-pyridine
##########          FlexRecCode: 1
##########               Number:                  306
##########   Ligand Source File: /raidb/db2/rgc/leads-emolecules-300/leads-emolecules-lt300-2j-0000004.db2.gz
##########           GlobalRank: 4084
##########                 Rank:                    1
##########               Setnum:                   21
##########             Matchnum:                 3849
##########                Cloud:                    1
##########        Electrostatic:           -21.362207
##########        Van der Waals:           -22.625235
##########  Ligand Polar Desolv:             7.697071
########## Ligand Apolar Desolv:            -3.797418
##########      Internal Energy:             0.000000
##########      Receptor Energy: 0.0
########## Receptor Desolvation:             0.000000
########## Receptor Hydrophobic:             0.000000
##########         Total Energy: -40.09
##########        Ligand Charge:             1.000000
##########            Arbitrary:    +999.9990
##########     heavy atom count:   22
##########           pose count:    1
##########        Ligand Energy:             0.000000
# num electro vdwattr vdwrepu polsolv apolsol rdesolv rhydroe totalscore fullpol fullapo
#   1   -0.11   -1.90    1.24   -0.55   -0.09    0.00    0.00      -1.41   -1.24   -0.20
#   2    0.08   -1.95    1.06    0.35   -0.28    0.00    0.00      -0.74    0.93   -0.75
#   3   -0.08   -0.88    0.19   -0.81   -0.11    0.00    0.00      -1.70   -3.30   -0.45
#   4    0.09   -0.54    0.03   -0.18   -0.08    0.00    0.00      -0.68   -0.85   -0.37
#   5    1.09   -0.85    0.08   -1.05   -0.09    0.00    0.00      -0.81   -3.81   -0.33
#   6   -0.42   -0.48    0.05    0.37   -0.07    0.00    0.00      -0.55    1.55   -0.30
#   7    8.22   -2.11    2.49   -3.73    0.14    0.00    0.00       5.01  -11.71    0.43
#   8  -15.08   -0.24    0.17    5.42    0.19    0.00    0.00      -9.55   15.96    0.56
#   9    0.24   -0.93    0.30   -0.04   -0.13    0.00    0.00      -0.56   -0.12   -0.38
#  10    1.88   -0.68    0.06   -1.40   -0.06    0.00    0.00      -0.20   -4.13   -0.19
#  11    0.93   -0.60    0.03   -0.82   -0.06    0.00    0.00      -0.52   -2.13   -0.15
#  12    0.29   -1.04    0.13   -0.74   -0.08    0.00    0.00      -1.45   -1.77   -0.20
#  13    0.02   -1.48    0.24   -0.45   -0.14    0.00    0.00      -1.82   -1.08   -0.33
#  14   -0.38   -1.76    0.45   -0.59   -0.20    0.00    0.00      -2.48   -1.33   -0.46
#  15   -0.78   -1.60    0.32   -0.88   -0.25    0.00    0.00      -3.20   -1.64   -0.47
#  16    0.32   -1.93    0.52   -0.10   -0.20    0.00    0.00      -1.38   -0.17   -0.34
#  17   -0.50   -1.39    0.20   -0.37   -0.31    0.00    0.00      -2.37   -0.57   -0.48
#  18   -0.01   -2.07    0.60   -0.93   -0.24    0.00    0.00      -2.65   -1.84   -0.47
#  19    0.10   -1.56    0.31   -0.51   -0.16    0.00    0.00      -1.82   -1.18   -0.38
#  20    1.48   -0.71    0.11   -1.50   -0.06    0.00    0.00      -0.67   -4.65   -0.19
#  21    0.12   -1.56    0.82    0.16   -0.16    0.00    0.00      -0.63    0.42   -0.42
#  22   -0.15   -2.44    0.98    0.75   -0.36    0.00    0.00      -1.22    1.96   -0.95
#  23    0.11   -3.14    1.57   -3.16    0.84    0.00    0.00      -3.77   -7.32    1.94
#  24    0.12   -0.53    0.35    0.28   -0.10    0.00    0.00       0.11    0.76   -0.28
#  25    0.05   -1.21    2.04    0.59   -0.16    0.00    0.00       1.30    1.02   -0.28
#  26    0.08   -0.46    0.27    0.08   -0.12    0.00    0.00      -0.15    0.19   -0.28
#  27    0.13   -0.12    0.01    0.33   -0.04    0.00    0.00       0.31    2.40   -0.28
#  28   -0.34   -0.07    0.00    0.39   -0.02    0.00    0.00      -0.04    5.41   -0.21
#  29   -1.13   -0.10    0.00    0.66   -0.03    0.00    0.00      -0.60    6.36   -0.28
#  30   -1.14   -0.10    0.01    0.54   -0.01    0.00    0.00      -0.71    5.44   -0.15
#  31   -2.38   -0.22    0.05    0.72   -0.04    0.00    0.00      -1.89    3.60   -0.22
#  32   -3.60   -0.40    0.13    1.58   -0.09    0.00    0.00      -2.37    4.85   -0.28
#  33   -0.80   -0.20    0.02    0.62   -0.03    0.00    0.00      -0.39    3.33   -0.16
#  34   -1.62   -0.44    0.20    0.72   -0.08    0.00    0.00      -1.22    2.63   -0.28
#  35   -1.06   -0.18    0.01    0.40   -0.06    0.00    0.00      -0.89    2.02   -0.28
#  36   -0.40   -0.56    0.28    0.86   -0.09    0.00    0.00       0.10    2.58   -0.28
#  37   -0.22   -0.48    0.10    0.71   -0.12    0.00    0.00       0.00    1.65   -0.28
#  38    1.27   -0.53    0.30    0.90   -0.10    0.00    0.00       1.85    2.59   -0.28
#  39    1.08   -0.27    0.02    0.28   -0.10    0.00    0.00       1.02    0.82   -0.28
#  40   -0.39   -0.67    0.47    0.61   -0.13    0.00    0.00      -0.10    1.37   -0.28
#  41   -0.35   -0.24    0.03    1.00   -0.07    0.00    0.00       0.36    4.01   -0.28
#  42   -0.69   -0.13    0.00    0.47   -0.03    0.00    0.00      -0.37    3.71   -0.22
#  43   -0.87   -0.40    0.26    0.47   -0.06    0.00    0.00      -0.59    1.82   -0.22
#  44   -2.97   -0.71    0.57    2.00   -0.12    0.00    0.00      -1.23    4.64   -0.28
#  45   -1.84   -0.67    0.47    2.22   -0.11    0.00    0.00       0.07    5.75   -0.28
#  46   -1.76   -1.20    1.56    2.02   -0.12    0.00    0.00       0.50    4.77   -0.28
@<TRIPOS>MOLECULE
E23838653
   46    48     0     0     0
SMALL
USER_CHARGES


@<TRIPOS>ATOM
      1 C1         29.3958   15.1544   57.2618 C.3       1            -0.1213
      2 C2         28.5639   16.1210   58.0647 C.ar      1             0.1709
      3 C3         28.5554   16.0329   59.4442 C.ar      1            -0.1688
      4 C4         27.7868   16.9269   60.1733 C.ar      1            -0.0466
      5 C5         27.0519   17.8802   59.4848 C.ar      1            -0.2256
      6 C6         26.2013   18.8744   60.2324 C.3       1             0.0411
      7 N1         24.8882   18.9819   59.5826 N.4       1            -0.3794
      8 H1         25.0098   19.2917   58.6300 H         1             0.4256
      9 C7         24.0621   19.9531   60.3097 C.3       1            -0.0110
     10 C8         23.9401   19.5289   61.7749 C.3       1            -0.1464
     11 C9         23.2875   18.1455   61.8474 C.3       1            -0.0940
     12 C10        23.2345   17.6806   63.3042 C.3       1            -0.0730
     13 C11        22.5956   16.3175   63.3736 C.ar      1            -0.1069
     14 C12        21.2260   16.2035   63.5235 C.ar      1            -0.0847
     15 C13        20.6389   14.9541   63.5872 C.ar      1            -0.1487
     16 C14        21.4230   13.8162   63.5004 C.ar      1             0.1052
     17 F1         20.8501   12.5942   63.5622 F         1            -0.1338
     18 C15        22.7945   13.9315   63.3498 C.ar      1            -0.1509
     19 C16        23.3788   15.1821   63.2815 C.ar      1            -0.0909
     20 C17        24.1175   17.1565   61.0240 C.3       1            -0.1496
     21 C18        24.2321   17.6689   59.5884 C.3       1            -0.0066
     22 C19        27.1098   17.9073   58.1045 C.ar      1             0.1390
     23 N2         27.8566   17.0442   57.4436 N.ar      1            -0.4778
     24 H2         29.9081   14.4684   57.9364 H         1             0.0913
     25 H3         28.7494   14.5889   56.5907 H         1             0.0859
     26 H4         30.1319   15.7067   56.6777 H         1             0.0879
     27 H5         29.1402   15.2773   59.9474 H         1             0.1496
     28 H6         27.7605   16.8818   61.2521 H         1             0.1434
     29 H7         26.0709   18.5396   61.2615 H         1             0.1395
     30 H8         26.6904   19.8483   60.2263 H         1             0.1414
     31 H9         24.5262   20.9378   60.2545 H         1             0.1270
     32 H10        23.0699   19.9944   59.8601 H         1             0.1319
     33 H11        24.9318   19.4877   62.2255 H         1             0.0888
     34 H12        23.3249   20.2504   62.3126 H         1             0.1143
     35 H13        22.2760   18.1982   61.4447 H         1             0.0940
     36 H14        24.2464   17.6284   63.7059 H         1             0.0798
     37 H15        22.6470   18.3875   63.8901 H         1             0.0860
     38 H16        20.6146   17.0913   63.5912 H         1             0.1331
     39 H17        19.5690   14.8652   63.7051 H         1             0.1393
     40 H18        23.4071   13.0447   63.2823 H         1             0.1386
     41 H19        24.4481   15.2724   63.1599 H         1             0.1306
     42 H20        25.1127   17.0660   61.4592 H         1             0.0899
     43 H21        23.6290   16.1820   61.0254 H         1             0.1157
     44 H22        23.2363   17.7588   59.1541 H         1             0.1315
     45 H23        24.8218   16.9659   59.0001 H         1             0.1323
     46 H24        26.5404   18.6466   57.5608 H         1             0.1625
@<TRIPOS>BOND
     1    1    2 1 
     2    1   24 1 
     3    1   25 1 
     4    1   26 1 
     5    2   23 ar
     6    2    3 ar
     7    3    4 ar
     8    3   27 1 
     9    4    5 ar
    10    4   28 1 
    11    5    6 1 
    12    5   22 ar
    13    6    7 1 
    14    6   29 1 
    15    6   30 1 
    16    7    8 1 
    17    7   21 1 
    18    7    9 1 
    19    9   10 1 
    20    9   31 1 
    21    9   32 1 
    22   10   11 1 
    23   10   33 1 
    24   10   34 1 
    25   11   12 1 
    26   11   20 1 
    27   11   35 1 
    28   12   13 1 
    29   12   36 1 
    30   12   37 1 
    31   13   19 ar
    32   13   14 ar
    33   14   15 ar
    34   14   38 1 
    35   15   16 ar
    36   15   39 1 
    37   16   17 1 
    38   16   18 ar
    39   18   19 ar
    40   18   40 1 
    41   19   41 1 
    42   20   21 1 
    43   20   42 1 
    44   20   43 1 
    45   21   44 1 
    46   21   45 1 
    47   22   23 ar
    48   22   46 1 
##########                 Name:            E31859234
##########          Protonation:                   55
##########               SMILES:   C[NH+](C)[C@@H](CNC(=O)NCc1cccnc1)c2ccco2
##########            Long Name:   [(1S)-1-(2-furyl)-2-(3-pyridylmethylcarbamoylamino)ethyl]-dimethyl-ammonium
##########          FlexRecCode: 1
##########               Number:                  377
##########   Ligand Source File: /raidb/db2/rgc/leads-emolecules-300/leads-emolecules-3-bj-0000021.db2.gz
##########           GlobalRank: 4108
##########                 Rank:                    1
##########               Setnum:                  150
##########             Matchnum:                  875
##########                Cloud:                    1
##########        Electrostatic:           -23.316771
##########        Van der Waals:           -25.525187
##########  Ligand Polar Desolv:            10.577443
########## Ligand Apolar Desolv:            -1.810641
##########      Internal Energy:             0.000000
##########      Receptor Energy: 0.0
########## Receptor Desolvation:             0.000000
########## Receptor Hydrophobic:             0.000000
##########         Total Energy: -40.08
##########        Ligand Charge:             1.000000
##########            Arbitrary:    +999.9990
##########     heavy atom count:   21
##########           pose count:    1
##########        Ligand Energy:             0.000000
# num electro vdwattr vdwrepu polsolv apolsol rdesolv rhydroe totalscore fullpol fullapo
#   1    1.40   -1.68    0.61   -0.87   -0.20    0.00    0.00      -0.75   -1.94   -0.45
#   2   10.13   -1.67    0.68   -4.70    0.13    0.00    0.00       4.57  -11.64    0.33
#   3  -13.89   -0.07    0.01    4.94    0.15    0.00    0.00      -8.87   13.92    0.43
#   4    1.24   -1.77    0.86   -0.68   -0.21    0.00    0.00      -0.57   -1.53   -0.47
#   5   -2.03   -0.66    0.06    1.58   -0.06    0.00    0.00      -1.12    4.65   -0.19
#   6   -1.49   -0.50    0.03    0.65   -0.10    0.00    0.00      -1.41    2.40   -0.36
#   7    7.78   -0.84    0.06   -4.60    0.67    0.00    0.00       3.06  -15.22    2.20
#   8   -4.66   -0.99    0.09    3.37   -0.72    0.00    0.00      -2.91   10.04   -2.14
#   9    3.46   -1.72    0.42   -2.11    0.15    0.00    0.00       0.21   -5.53    0.40
#  10    2.61   -1.23    0.22   -3.99    0.89    0.00    0.00      -1.50  -10.71    2.39
#  11    0.16   -1.36    0.43    1.02   -0.20    0.00    0.00       0.07    2.31   -0.44
#  12   -0.46   -1.79    0.42   -0.77   -0.19    0.00    0.00      -2.80   -1.51   -0.37
#  13   -0.29   -1.61    0.31   -0.32   -0.25    0.00    0.00      -2.16   -0.60   -0.46
#  14   -0.93   -1.85    0.33   -1.07   -0.29    0.00    0.00      -3.80   -1.78   -0.48
#  15    0.30   -2.76    0.64    0.28   -0.64    0.00    0.00      -2.18    0.43   -0.98
#  16   -2.45   -3.75    1.49   -1.91    1.33    0.00    0.00      -5.29   -2.94    2.05
#  17    0.33   -2.58    0.71    0.37   -0.55    0.00    0.00      -1.71    0.64   -0.95
#  18    1.38   -1.16    0.24   -0.32   -0.06    0.00    0.00       0.08   -1.08   -0.20
#  19    0.49   -1.32    0.31   -0.94   -0.13    0.00    0.00      -1.59   -3.57   -0.51
#  20   -0.20   -0.93    0.12   -1.06   -0.13    0.00    0.00      -2.20   -4.18   -0.51
#  21   -0.04   -0.82    0.08   -0.11   -0.07    0.00    0.00      -0.96   -0.42   -0.27
#  22    2.55   -0.94    0.13   -1.04    0.07    0.00    0.00       0.76   -3.46    0.22
#  23   -2.24   -0.29    0.04    1.66   -0.09    0.00    0.00      -0.91    5.17   -0.28
#  24   -4.10   -1.04    0.98    1.74   -0.11    0.00    0.00      -2.54    3.36   -0.22
#  25   -3.24   -0.65    0.42    2.06   -0.11    0.00    0.00      -1.52    5.32   -0.28
#  26   -3.64   -0.76    0.61    0.98   -0.10    0.00    0.00      -2.89    2.40   -0.24
#  27   -4.06   -1.27    2.87    2.21   -0.12    0.00    0.00      -0.38    5.02   -0.28
#  28   -2.37   -0.37    0.06    1.72   -0.10    0.00    0.00      -1.05    4.94   -0.28
#  29   -2.30   -0.23    0.02    1.74   -0.06    0.00    0.00      -0.83    7.99   -0.28
#  30   -2.03   -0.26    0.08    0.22   -0.05    0.00    0.00      -2.05    1.15   -0.28
#  31   -0.88   -0.12    0.01    0.42   -0.03    0.00    0.00      -0.59    3.61   -0.23
#  32   -4.04   -0.02    0.00    2.62    0.10    0.00    0.00      -1.33   10.49    0.41
#  33   -1.76   -0.03    0.00    1.96    0.15    0.00    0.00       0.32    7.54    0.57
#  34    0.14   -0.85    1.00    0.17   -0.11    0.00    0.00       0.35    0.44   -0.28
#  35    0.20   -0.55    0.24    0.34   -0.11    0.00    0.00       0.11    0.86   -0.28
#  36    1.16   -0.32    0.05    0.90   -0.09    0.00    0.00       1.70    2.75   -0.28
#  37    1.08   -0.45    0.17    0.93   -0.11    0.00    0.00       1.61    2.27   -0.28
#  38   -0.13   -0.97    0.69    0.92   -0.18    0.00    0.00       0.33    1.44   -0.28
#  39    0.04   -0.67    0.29    0.70   -0.14    0.00    0.00       0.23    1.43   -0.28
#  40   -0.24   -0.41    0.20    0.82   -0.07    0.00    0.00       0.30    3.33   -0.28
#  41    0.45   -0.15    0.01    0.27   -0.05    0.00    0.00       0.52    1.55   -0.28
#  42   -0.73   -0.13    0.00    0.50   -0.03    0.00    0.00      -0.38    4.12   -0.28
@<TRIPOS>MOLECULE
E31859234
   42    43     0     0     0
SMALL
USER_CHARGES


@<TRIPOS>ATOM
      1 C1         22.7574   18.6462   59.4961 C.3       1            -0.0552
      2 N1         23.0234   19.9917   60.0223 N.4       1            -0.3904
      3 H1         23.4371   20.5602   59.2985 H         1             0.4225
      4 C2         21.7628   20.6027   60.4645 C.3       1            -0.0471
      5 C3         23.9480   19.8985   61.1601 C.3       1             0.1245
      6 C4         25.0226   18.8516   60.8595 C.3       1             0.1156
      7 N2         24.4825   17.5125   61.1069 N.am      1            -0.7618
      8 C5         24.0396   17.1809   62.3359 C.2       1             0.7090
      9 O1         24.0881   17.9933   63.2393 O.2       1            -0.5674
     10 N3         23.5427   15.9489   62.5635 N.am      1            -0.7349
     11 C6         23.0613   15.5885   63.8993 C.3       1             0.1847
     12 C7         21.9562   14.5711   63.7775 C.ar      1            -0.1732
     13 C8         20.6359   14.9791   63.6624 C.ar      1            -0.0544
     14 C9         19.6525   14.0082   63.5528 C.ar      1            -0.1728
     15 C10        20.0181   12.6752   63.5618 C.ar      1             0.1139
     16 N4         21.2840   12.3239   63.6733 N.ar      1            -0.4828
     17 C11        22.2463   13.2201   63.7734 C.ar      1             0.1216
     18 C12        24.6009   21.2375   61.3877 C.2       1            -0.1090
     19 C13        25.5030   21.5203   62.3447 C.2       1            -0.1265
     20 C14        25.8462   22.8835   62.1940 C.2       1            -0.2105
     21 C15        25.1335   23.3523   61.1540 C.2       1             0.0098
     22 O2         24.3852   22.3494   60.6660 O.3       1            -0.1844
     23 H2         22.3106   18.0322   60.2779 H         1             0.1318
     24 H3         22.0714   18.7153   58.6518 H         1             0.1271
     25 H4         23.6927   18.1929   59.1680 H         1             0.1305
     26 H5         21.9602   21.6010   60.8549 H         1             0.1223
     27 H6         21.0767   20.6719   59.6202 H         1             0.1295
     28 H7         21.3161   19.9886   61.2463 H         1             0.1279
     29 H8         23.3961   19.6067   62.0536 H         1             0.1777
     30 H9         25.3277   18.9334   59.8163 H         1             0.1191
     31 H10        25.8848   19.0205   61.5047 H         1             0.1051
     32 H11        24.4436   16.8644   60.3862 H         1             0.3894
     33 H12        23.5038   15.3009   61.8428 H         1             0.3981
     34 H13        23.8817   15.1661   64.4795 H         1             0.0848
     35 H14        22.6819   16.4787   64.4012 H         1             0.0834
     36 H15        20.3797   16.0283   63.6586 H         1             0.1366
     37 H16        18.6137   14.2898   63.4619 H         1             0.1413
     38 H17        19.2580   11.9127   63.4768 H         1             0.1618
     39 H18        23.2726   12.8943   63.8577 H         1             0.1566
     40 H19        25.8904   20.8372   63.0861 H         1             0.1629
     41 H20        26.5462   23.4414   62.7983 H         1             0.1643
     42 H21        25.1612   24.3626   60.7735 H         1             0.2185
@<TRIPOS>BOND
     1    1    2 1 
     2    1   23 1 
     3    1   24 1 
     4    1   25 1 
     5    2    3 1 
     6    2    4 1 
     7    2    5 1 
     8    4   26 1 
     9    4   27 1 
    10    4   28 1 
    11    5    6 1 
    12    5   18 1 
    13    5   29 1 
    14    6    7 1 
    15    6   30 1 
    16    6   31 1 
    17    7    8 am
    18    7   32 1 
    19    8    9 2 
    20    8   10 am
    21   10   11 1 
    22   10   33 1 
    23   11   12 1 
    24   11   34 1 
    25   11   35 1 
    26   12   17 ar
    27   12   13 ar
    28   13   14 ar
    29   13   36 1 
    30   14   15 ar
    31   14   37 1 
    32   15   16 ar
    33   15   38 1 
    34   16   17 ar
    35   17   39 1 
    36   18   22 1 
    37   18   19 2 
    38   19   20 1 
    39   19   40 1 
    40   20   21 2 
    41   20   41 1 
    42   21   22 1 
    43   21   42 1 
##########                 Name:            E30032605
##########          Protonation:                   91
##########               SMILES:   c1ccc(c(c1)C[NH2+]C[C@H](c2ccc(c(c2)F)F)O)Cl
##########            Long Name:   (2-chlorophenyl)methyl-[(2S)-2-(3,4-difluorophenyl)-2-hydroxy-ethyl]ammonium
##########          FlexRecCode: 1
##########               Number:                  156
##########   Ligand Source File: /raidb/db2/rgc/leads-emolecules-300/leads-emolecules-lt300-2i-0000209.db2.gz
##########           GlobalRank: 4108
##########                 Rank:                    1
##########               Setnum:                  127
##########             Matchnum:                 3265
##########                Cloud:                    1
##########        Electrostatic:           -26.030479
##########        Van der Waals:           -20.966412
##########  Ligand Polar Desolv:             8.910572
########## Ligand Apolar Desolv:            -1.998553
##########      Internal Energy:             0.000000
##########      Receptor Energy: 0.0
########## Receptor Desolvation:             0.000000
########## Receptor Hydrophobic:             0.000000
##########         Total Energy: -40.08
##########        Ligand Charge:             1.000000
##########            Arbitrary:    +999.9990
##########     heavy atom count:   20
##########           pose count:    1
##########        Ligand Energy:             0.000000
# num electro vdwattr vdwrepu polsolv apolsol rdesolv rhydroe totalscore fullpol fullapo
#   1    5.94   -1.37    0.19   -6.69    0.68    0.00    0.00      -1.26  -16.20    1.64
#   2   -1.27   -0.61    0.03    1.61   -0.05    0.00    0.00      -0.30    4.30   -0.14
#   3    0.72   -0.80    0.11   -0.30   -0.13    0.00    0.00      -0.40   -0.85   -0.37
#   4   12.21   -1.56    0.88   -6.34    0.27    0.00    0.00       5.45  -17.17    0.73
#   5  -16.00   -0.12    0.03    6.63    0.21    0.00    0.00      -9.25   16.99    0.54
#   6  -10.37   -0.02    0.00    4.39    0.15    0.00    0.00      -5.85   14.46    0.51
#   7   -0.67   -0.65    0.14    0.51   -0.10    0.00    0.00      -0.79    1.82   -0.37
#   8    2.35   -1.23    0.51   -0.75   -0.10    0.00    0.00       0.77   -2.76   -0.37
#   9    1.26   -1.60    0.44   -0.47   -0.15    0.00    0.00      -0.52   -1.47   -0.45
#  10    1.09   -1.39    0.36   -0.86   -0.15    0.00    0.00      -0.96   -2.70   -0.47
#  11    0.33   -0.86    0.06   -0.63   -0.15    0.00    0.00      -1.23   -2.03   -0.47
#  12    0.37   -0.85    0.10   -0.68   -0.12    0.00    0.00      -1.18   -2.53   -0.46
#  13    0.17   -0.90    0.20   -0.18   -0.07    0.00    0.00      -0.79   -0.77   -0.30
#  14    0.17   -1.11    0.12   -0.26   -0.18    0.00    0.00      -1.26   -1.33   -0.91
#  15    0.49   -1.17    0.16   -0.66   -0.14    0.00    0.00      -1.33   -1.67   -0.35
#  16    0.23   -1.30    0.23   -0.47   -0.17    0.00    0.00      -1.49   -1.23   -0.44
#  17    0.01   -1.73    0.45   -0.94   -0.22    0.00    0.00      -2.43   -2.04   -0.47
#  18    0.27   -1.70    0.47   -0.20   -0.18    0.00    0.00      -1.33   -0.37   -0.34
#  19   -0.47   -0.97    0.11   -0.47   -0.29    0.00    0.00      -2.09   -0.78   -0.47
#  20    0.40   -1.64    0.41   -0.14   -0.16    0.00    0.00      -1.12   -0.30   -0.34
#  21   -1.32   -0.88    0.10   -0.51   -0.24    0.00    0.00      -2.84   -0.99   -0.47
#  22   -0.10   -1.54    0.33   -0.77   -0.20    0.00    0.00      -2.28   -1.78   -0.45
#  23   -5.90   -0.03    0.00    3.70    0.28    0.00    0.00      -1.96   13.44    1.01
#  24   -1.13   -0.20    0.02    0.77   -0.05    0.00    0.00      -0.59    4.43   -0.28
#  25   -1.99   -0.25    0.04    1.51   -0.07    0.00    0.00      -0.76    5.90   -0.28
#  26   -2.36   -0.37    0.11    2.73   -0.10    0.00    0.00       0.02    7.94   -0.28
#  27   -1.58   -0.14    0.01    0.71   -0.04    0.00    0.00      -1.04    4.66   -0.25
#  28   -1.95   -0.16    0.02    1.09   -0.04    0.00    0.00      -1.03    8.08   -0.28
#  29   -3.62   -0.46    0.18    2.00   -0.09    0.00    0.00      -1.99    6.12   -0.28
#  30   -1.99   -0.40    0.17    0.61   -0.07    0.00    0.00      -1.67    2.43   -0.28
#  31   -0.56   -0.20    0.03    0.27   -0.05    0.00    0.00      -0.51    1.41   -0.28
#  32   -0.16   -0.18    0.02    0.22   -0.05    0.00    0.00      -0.14    1.33   -0.28
#  33   -0.57   -0.19    0.01    1.38   -0.05    0.00    0.00       0.58    6.77   -0.24
#  34   -0.18   -0.39    0.08    0.92   -0.11    0.00    0.00       0.32    2.36   -0.28
#  35    0.15   -0.45    0.32    1.21   -0.09    0.00    0.00       1.15    3.80   -0.28
@<TRIPOS>MOLECULE
E30032605
   35    36     0     0     0
SMALL
USER_CHARGES


@<TRIPOS>ATOM
      1 O1         22.7039   19.3120   62.4578 O.3       1            -0.5422
      2 C1         23.4364   18.1580   62.0408 C.3       1             0.1375
      3 C2         23.4840   18.1090   60.5123 C.3       1            -0.0458
      4 N1         23.6869   19.4650   59.9850 N.4       1            -0.5059
      5 H1         23.7183   19.4327   58.9770 H         1             0.4338
      6 H2         22.9250   20.0577   60.2788 H         1             0.4257
      7 C3         24.9531   20.0054   60.4972 C.3       1             0.0414
      8 C4         25.1614   21.3963   59.9562 C.ar      1            -0.1595
      9 C5         24.1183   22.3035   59.9616 C.ar      1            -0.0745
     10 C6         24.3091   23.5794   59.4655 C.ar      1            -0.1070
     11 C7         25.5432   23.9492   58.9637 C.ar      1            -0.0684
     12 C8         26.5867   23.0433   58.9577 C.ar      1            -0.1015
     13 C9         26.3978   21.7675   59.4595 C.ar      1            -0.0233
     14 Cl1        27.7100   20.6310   59.4585 Cl        1            -0.0544
     15 C10        22.7587   16.9172   62.5624 C.ar      1            -0.1258
     16 C11        23.5073   15.7916   62.8522 C.ar      1            -0.0874
     17 C12        22.8881   14.6523   63.3307 C.ar      1            -0.1170
     18 C13        21.5172   14.6377   63.5207 C.ar      1             0.0916
     19 F1         20.9112   13.5247   63.9889 F         1            -0.1149
     20 C14        20.7665   15.7667   63.2306 C.ar      1             0.0781
     21 F2         19.4282   15.7548   63.4152 F         1            -0.1165
     22 C15        21.3903   16.9075   62.7560 C.ar      1            -0.1076
     23 H3         23.0837   20.1489   62.1571 H         1             0.3901
     24 H4         24.4516   18.2103   62.4344 H         1             0.1356
     25 H5         24.3070   17.4689   60.1947 H         1             0.1479
     26 H6         22.5444   17.7083   60.1322 H         1             0.1431
     27 H7         24.9193   20.0402   61.5861 H         1             0.1415
     28 H8         25.7763   19.3651   60.1798 H         1             0.1472
     29 H9         23.1539   22.0151   60.3533 H         1             0.1445
     30 H10        23.4938   24.2877   59.4696 H         1             0.1456
     31 H11        25.6916   24.9463   58.5757 H         1             0.1480
     32 H12        27.5505   23.3322   58.5653 H         1             0.1486
     33 H13        24.5771   15.8023   62.7041 H         1             0.1419
     34 H14        23.4739   13.7734   63.5560 H         1             0.1572
     35 H15        20.8071   17.7889   62.5332 H         1             0.1525
@<TRIPOS>BOND
     1    1    2 1 
     2    1   23 1 
     3    2    3 1 
     4    2   15 1 
     5    2   24 1 
     6    3    4 1 
     7    3   25 1 
     8    3   26 1 
     9    4    5 1 
    10    4    6 1 
    11    4    7 1 
    12    7    8 1 
    13    7   27 1 
    14    7   28 1 
    15    8   13 ar
    16    8    9 ar
    17    9   10 ar
    18    9   29 1 
    19   10   11 ar
    20   10   30 1 
    21   11   12 ar
    22   11   31 1 
    23   12   13 ar
    24   12   32 1 
    25   13   14 1 
    26   15   22 ar
    27   15   16 ar
    28   16   17 ar
    29   16   33 1 
    30   17   18 ar
    31   17   34 1 
    32   18   19 1 
    33   18   20 ar
    34   20   21 1 
    35   20   22 ar
    36   22   35 1 
##########                 Name:              E861114
##########          Protonation:                  100
##########               SMILES:   CCn1c(c(cn1)c2c(cn(n2)c3ccccc3)C=O)C
##########            Long Name:   3-(1-ethyl-5-methyl-pyrazol-4-yl)-1-phenyl-pyrazole-4-carbaldehyde
##########          FlexRecCode: 1
##########               Number:                  291
##########   Ligand Source File: /raidb/db2/rgc/leads-emolecules-300/leads-lt300-emolecules-1j-0000103.db2.gz
##########           GlobalRank: 4108
##########                 Rank:                    1
##########               Setnum:                   66
##########             Matchnum:                  140
##########                Cloud:                    1
##########        Electrostatic:           -11.660226
##########        Van der Waals:           -29.674904
##########  Ligand Polar Desolv:             5.448101
########## Ligand Apolar Desolv:            -4.191566
##########      Internal Energy:             0.000000
##########      Receptor Energy: 0.0
########## Receptor Desolvation:             0.000000
########## Receptor Hydrophobic:             0.000000
##########         Total Energy: -40.08
##########        Ligand Charge:             0.000000
##########            Arbitrary:    +999.9990
##########     heavy atom count:   21
##########           pose count:    1
##########        Ligand Energy:             0.000000
# num electro vdwattr vdwrepu polsolv apolsol rdesolv rhydroe totalscore fullpol fullapo
#   1    3.90   -1.31    0.41   -0.19   -0.09    0.00    0.00       2.73   -0.46   -0.21
#   2   -2.29   -0.79    0.06    0.11   -0.22    0.00    0.00      -3.13    0.26   -0.51
#   3    3.39   -1.16    0.08    0.22    0.47    0.00    0.00       3.01    0.50    1.05
#   4    1.45   -1.45    0.14    0.52    0.54    0.00    0.00       1.20    1.24    1.29
#   5    0.05   -2.24    0.82   -0.09   -0.47    0.00    0.00      -1.92   -0.19   -1.02
#   6   -0.85   -1.98    0.72    0.28   -0.19    0.00    0.00      -2.02    0.63   -0.42
#   7   -0.40   -1.84    0.86   -0.09   -0.34    0.00    0.00      -1.81   -0.19   -0.76
#   8    0.56   -1.85    1.33   -0.06   -0.10    0.00    0.00      -0.11   -0.11   -0.19
#   9    2.36   -2.07    0.70   -0.41   -0.37    0.00    0.00       0.22   -0.83   -0.75
#  10   -5.62   -3.20    2.70    0.83    0.61    0.00    0.00      -4.69    1.51    1.11
#  11   -3.88   -1.91    0.28    0.68    0.43    0.00    0.00      -4.39    1.13    0.72
#  12    0.93   -2.13    0.62   -0.20   -0.53    0.00    0.00      -1.31   -0.34   -0.90
#  13   -2.06   -1.62    0.24    0.66   -0.26    0.00    0.00      -3.04    1.13   -0.44
#  14    1.47   -1.87    0.36   -0.71   -0.14    0.00    0.00      -0.88   -1.20   -0.24
#  15   -2.14   -2.58    0.50    2.18    0.28    0.00    0.00      -1.76    3.39    0.43
#  16    1.92   -2.46    0.83   -0.16   -0.45    0.00    0.00      -0.32   -0.25   -0.71
#  17   -1.08   -2.80    0.76   -0.03   -0.29    0.00    0.00      -3.43   -0.04   -0.44
#  18   -0.66   -3.07    0.95   -0.13   -0.30    0.00    0.00      -3.22   -0.21   -0.47
#  19   -1.28   -2.49    1.08   -0.18   -0.31    0.00    0.00      -3.18   -0.28   -0.47
#  20   -1.11   -2.92    1.70   -0.05   -0.28    0.00    0.00      -2.66   -0.08   -0.47
#  21   -1.54   -3.08    1.34    0.16   -0.27    0.00    0.00      -3.39    0.27   -0.46
#  22   -2.82   -1.26    3.75    0.23   -0.11    0.00    0.00      -0.21    0.57   -0.28
#  23   -1.02   -0.23    0.03    0.04   -0.07    0.00    0.00      -1.25    0.17   -0.28
#  24   -1.48   -0.58    0.30    0.00   -0.12    0.00    0.00      -1.88    0.00   -0.28
#  25   -1.72   -0.23    0.03    0.16   -0.06    0.00    0.00      -1.82    0.71   -0.27
#  26   -2.23   -0.31    0.04    0.08   -0.10    0.00    0.00      -2.52    0.23   -0.28
#  27    0.57   -0.83    0.65    0.03   -0.12    0.00    0.00       0.30    0.06   -0.28
#  28    0.19   -0.76    0.68    0.08   -0.13    0.00    0.00       0.06    0.18   -0.28
#  29   -1.01   -0.70    1.06   -0.01   -0.13    0.00    0.00      -0.79   -0.02   -0.27
#  30   -0.89   -0.56    0.20    0.22   -0.13    0.00    0.00      -1.16    0.46   -0.26
#  31    0.69   -0.71    0.54    0.02   -0.12    0.00    0.00       0.43    0.05   -0.24
#  32    0.14   -0.32    0.07    0.03   -0.10    0.00    0.00      -0.19    0.07   -0.27
#  33    0.50   -0.58    0.10    0.21   -0.14    0.00    0.00       0.09    0.36   -0.23
#  34    0.37   -0.86    0.36    0.53   -0.17    0.00    0.00       0.22    0.88   -0.28
#  35    1.22   -0.40    0.06    0.42   -0.14    0.00    0.00       1.17    0.85   -0.28
#  36    1.16   -0.64    0.23    0.26   -0.14    0.00    0.00       0.86    0.51   -0.28
#  37    1.55   -0.78    0.32   -0.21   -0.16    0.00    0.00       0.72   -0.37   -0.27
@<TRIPOS>MOLECULE
E861114
   37    39     0     0     0
SMALL
USER_CHARGES


@<TRIPOS>ATOM
      1 C1         23.2505   18.5949   59.7957 C.3       1            -0.1722
      2 C2         22.5676   19.3607   60.9307 C.3       1             0.1249
      3 N1         22.1968   18.4263   61.9963 N.pl3     1            -0.3618
      4 N2         22.9940   18.0724   63.0915 N.2       1            -0.2870
      5 C3         22.3335   17.2187   63.8279 C.2       1             0.0796
      6 C4         21.0807   16.9965   63.2225 C.2       1            -0.1892
      7 C5         21.0270   17.7638   62.0945 C.2       1             0.1311
      8 C6         19.8708   17.8518   61.1318 C.3       1            -0.0950
      9 C7         20.0126   16.0973   63.7227 C.2       1             0.2174
     10 N3         18.7894   16.4444   64.0513 N.2       1            -0.2833
     11 N4         18.0885   15.3123   64.4756 N.pl3     1            -0.3093
     12 C8         18.8864   14.2347   64.4121 C.2       1             0.1325
     13 C9         20.1198   14.6488   63.9383 C.2       1            -0.3254
     14 C10        21.2971   13.8105   63.7033 C.2       1             0.4178
     15 O1         21.2473   12.6187   63.9253 O.2       1            -0.4764
     16 C11        16.7546   15.3036   64.9032 C.ar      1             0.1479
     17 C12        16.4388   14.8849   66.1891 C.ar      1            -0.1387
     18 C13        15.1227   14.8774   66.6077 C.ar      1            -0.0917
     19 C14        14.1198   15.2857   65.7477 C.ar      1            -0.1238
     20 C15        14.4310   15.7030   64.4666 C.ar      1            -0.0960
     21 C16        15.7457   15.7187   64.0440 C.ar      1            -0.1136
     22 H1         23.5265   19.2902   59.0029 H         1             0.0803
     23 H2         24.1462   18.1038   60.1763 H         1             0.0619
     24 H3         22.5657   17.8453   59.3996 H         1             0.0680
     25 H4         23.2526   20.1104   61.3269 H         1             0.0957
     26 H5         21.6720   19.8518   60.5502 H         1             0.1004
     27 H6         22.6864   16.7630   64.7411 H         1             0.1891
     28 H7         19.0639   17.2032   61.4729 H         1             0.0877
     29 H8         19.5145   18.8809   61.0852 H         1             0.0859
     30 H9         20.1977   17.5350   60.1415 H         1             0.0746
     31 H10        18.6134   13.2242   64.6784 H         1             0.1911
     32 H11        22.2097   14.2531   63.3322 H         1             0.1058
     33 H12        17.2216   14.5654   66.8610 H         1             0.1319
     34 H13        14.8766   14.5520   67.6077 H         1             0.1356
     35 H14        13.0913   15.2781   66.0771 H         1             0.1311
     36 H15        13.6453   16.0212   63.7972 H         1             0.1341
     37 H16        15.9886   16.0494   63.0450 H         1             0.1392
@<TRIPOS>BOND
     1    1    2 1 
     2    1   22 1 
     3    1   23 1 
     4    1   24 1 
     5    2    3 1 
     6    2   25 1 
     7    2   26 1 
     8    3    7 1 
     9    3    4 1 
    10    4    5 2 
    11    5    6 1 
    12    5   27 1 
    13    6    7 2 
    14    6    9 1 
    15    7    8 1 
    16    8   28 1 
    17    8   29 1 
    18    8   30 1 
    19    9   13 1 
    20    9   10 2 
    21   10   11 1 
    22   11   12 1 
    23   11   16 1 
    24   12   13 2 
    25   12   31 1 
    26   13   14 1 
    27   14   15 2 
    28   14   32 1 
    29   16   21 ar
    30   16   17 ar
    31   17   18 ar
    32   17   33 1 
    33   18   19 ar
    34   18   34 1 
    35   19   20 ar
    36   19   35 1 
    37   20   21 ar
    38   20   36 1 
    39   21   37 1 
##########                 Name:            E36931696
##########          Protonation:                   98
##########               SMILES:   c1cnn(c1)CC[NH2+]C[C@@H](COc2ccc(cc2)C#N)O
##########            Long Name:   [(2S)-3-(4-cyanophenoxy)-2-hydroxy-propyl]-(2-pyrazol-1-ylethyl)ammonium
##########          FlexRecCode: 1
##########               Number:                  529
##########   Ligand Source File: /raidb/db2/rgc/leads-emolecules-300/leads-emolecules-2b-0000107.db2.gz
##########           GlobalRank: 4124
##########                 Rank:                    1
##########               Setnum:                   80
##########             Matchnum:                 4061
##########                Cloud:                    1
##########        Electrostatic:           -22.373383
##########        Van der Waals:           -22.572718
##########  Ligand Polar Desolv:             6.518349
########## Ligand Apolar Desolv:            -1.640424
##########      Internal Energy:             0.000000
##########      Receptor Energy: 0.0
########## Receptor Desolvation:             0.000000
########## Receptor Hydrophobic:             0.000000
##########         Total Energy: -40.07
##########        Ligand Charge:             1.000000
##########            Arbitrary:    +999.9990
##########     heavy atom count:   21
##########           pose count:    1
##########        Ligand Energy:             0.000000
# num electro vdwattr vdwrepu polsolv apolsol rdesolv rhydroe totalscore fullpol fullapo
#   1   12.70   -2.43    1.72   -6.06    0.57    0.00    0.00       6.51  -15.94    1.51
#   2   -1.18   -0.57    0.06    0.83   -0.04    0.00    0.00      -0.90    2.99   -0.15
#   3    0.55   -0.56    0.04   -0.08   -0.11    0.00    0.00      -0.16   -0.27   -0.38
#   4    8.37   -0.93    0.23   -5.21    0.21    0.00    0.00       2.66  -17.71    0.73
#   5   -5.24   -0.01    0.00    2.48    0.08    0.00    0.00      -2.69   18.77    0.57
#   6  -11.40   -0.04    0.00    4.85    0.14    0.00    0.00      -6.45   17.44    0.52
#   7    0.31   -0.96    0.36    0.21   -0.13    0.00    0.00      -0.21    0.67   -0.42
#   8   -1.27   -0.70    0.09    0.62   -0.15    0.00    0.00      -1.42    2.06   -0.51
#   9    2.98   -1.05    0.10   -2.34    0.37    0.00    0.00       0.06   -7.11    1.11
#  10   -0.54   -1.22    0.13    0.51   -0.38    0.00    0.00      -1.49    1.33   -0.99
#  11    1.12   -1.52    0.23   -2.07   -0.25    0.00    0.00      -2.49   -4.26   -0.51
#  12    0.07   -1.80    0.50   -0.05   -0.47    0.00    0.00      -1.76   -0.12   -1.06
#  13   -0.60   -1.48    0.30   -1.68    0.45    0.00    0.00      -3.01   -4.75    1.28
#  14   -0.23   -0.50    0.03   -0.17   -0.02    0.00    0.00      -0.89   -0.61   -0.08
#  15    2.19   -0.77    0.04   -2.13    0.28    0.00    0.00      -0.39   -5.96    0.78
#  16   -0.50   -1.21    0.19    1.06   -0.12    0.00    0.00      -0.58    2.78   -0.31
#  17   -0.08   -1.49    0.41   -1.34   -0.18    0.00    0.00      -2.68   -3.21   -0.42
#  18   -0.10   -1.70    0.67   -0.17   -0.22    0.00    0.00      -1.52   -0.36   -0.45
#  19   -0.11   -1.89    0.55   -0.63   -0.22    0.00    0.00      -2.30   -1.16   -0.40
#  20    0.03   -1.95    0.51   -0.18   -0.21    0.00    0.00      -1.80   -0.37   -0.45
#  21    0.39   -1.35    0.21   -0.87   -0.18    0.00    0.00      -1.79   -2.19   -0.46
#  22    1.02   -2.68    0.64    0.72   -0.92    0.00    0.00      -1.21    1.14   -1.46
#  23   -1.50   -5.29    3.47    0.16    0.48    0.00    0.00      -2.69    0.23    0.71
#  24  -14.89   -0.20    0.10    4.63    0.47    0.00    0.00      -9.89   11.93    1.22
#  25   -1.47   -0.13    0.01    0.51   -0.03    0.00    0.00      -1.11    4.14   -0.28
#  26   -2.17   -0.20    0.02    1.19   -0.05    0.00    0.00      -1.21    6.24   -0.28
#  27   -1.20   -0.19    0.02    1.32   -0.05    0.00    0.00      -0.11    7.09   -0.28
#  28   -3.38   -0.92    2.55    1.17   -0.09    0.00    0.00      -0.67    3.83   -0.28
#  29   -0.73   -0.26    0.07    1.01   -0.05    0.00    0.00       0.02    5.17   -0.28
#  30   -0.67   -0.12    0.00    0.67   -0.03    0.00    0.00      -0.14    6.11   -0.28
#  31   -1.53   -0.50    0.29    0.99   -0.08    0.00    0.00      -0.82    3.52   -0.28
#  32   -1.88   -0.33    0.08    1.31   -0.07    0.00    0.00      -0.89    5.17   -0.28
#  33   -0.93   -0.74    1.04    0.52   -0.10    0.00    0.00      -0.21    1.43   -0.28
#  34    0.67   -0.48    0.18    0.75   -0.11    0.00    0.00       1.02    1.88   -0.28
#  35   -0.66   -0.17    0.01    0.65   -0.05    0.00    0.00      -0.21    3.38   -0.27
#  36   -0.59   -0.19    0.04    0.41   -0.04    0.00    0.00      -0.36    2.91   -0.27
#  37    0.13   -0.29    0.05    1.36   -0.06    0.00    0.00       1.18    4.61   -0.22
#  38    0.95   -0.27    0.03    0.64   -0.09    0.00    0.00       1.26    2.06   -0.28
#  39   -0.49   -0.56    0.29    0.53   -0.12    0.00    0.00      -0.36    1.26   -0.28
#  40   -0.55   -0.20    0.01    0.41   -0.06    0.00    0.00      -0.37    1.95   -0.28
@<TRIPOS>MOLECULE
E36931696
   40    41     0     0     0
SMALL
USER_CHARGES


@<TRIPOS>ATOM
      1 O1         24.2184   18.4609   59.4136 O.3       1            -0.5432
      2 C1         25.0477   18.6819   60.5562 C.3       1             0.0860
      3 C2         24.5942   19.9528   61.2773 C.3       1            -0.0406
      4 N1         24.7026   21.0987   60.3647 N.4       1            -0.4999
      5 H1         25.6615   21.2038   60.0690 H         1             0.4323
      6 H2         24.1172   20.9427   59.5578 H         1             0.4365
      7 C3         24.2671   22.3190   61.0570 C.3       1            -0.0228
      8 C4         24.3800   23.5126   60.1065 C.3       1             0.1194
      9 N2         23.9457   24.7296   60.7968 N.pl3     1            -0.3960
     10 C5         23.1238   25.6757   60.2967 C.2       1             0.0583
     11 C6         22.9714   26.6315   61.2424 C.2       1            -0.2537
     12 C7         23.7259   26.2565   62.3589 C.2       1             0.0716
     13 N3         24.3056   25.1135   62.0951 N.2       1            -0.3033
     14 C8         24.9347   17.4884   61.5068 C.3       1             0.0262
     15 O2         23.7364   17.6042   62.2767 O.3       1            -0.2969
     16 C9         23.1463   16.4487   62.6760 C.ar      1             0.1478
     17 C10        21.7677   16.3962   62.8423 C.ar      1            -0.2107
     18 C11        21.1648   15.2258   63.2468 C.ar      1            -0.0285
     19 C12        21.9417   14.0898   63.4901 C.ar      1            -0.0522
     20 C13        23.3279   14.1469   63.3216 C.ar      1            -0.0270
     21 C14        23.9220   15.3201   62.9116 C.ar      1            -0.1434
     22 C15        21.3193   12.8709   63.9113 C.1       1             0.2434
     23 N4         20.8255   11.9040   64.2454 N.1       1            -0.4005
     24 H3         24.2405   19.1792   58.7666 H         1             0.3918
     25 H4         26.0836   18.7952   60.2369 H         1             0.1379
     26 H5         23.5582   19.8393   61.5968 H         1             0.1427
     27 H6         25.2268   20.1214   62.1489 H         1             0.1491
     28 H7         23.2311   22.2055   61.3763 H         1             0.1466
     29 H8         24.8996   22.4876   61.9286 H         1             0.1391
     30 H9         25.4160   23.6260   59.7870 H         1             0.1171
     31 H10        23.7475   23.3439   59.2349 H         1             0.1055
     32 H11        22.6695   25.6713   59.3169 H         1             0.1811
     33 H12        22.3733   27.5261   61.1510 H         1             0.1587
     34 H13        23.8113   26.8119   63.2811 H         1             0.1934
     35 H14        24.9071   16.5647   60.9286 H         1             0.0861
     36 H15        25.7958   17.4732   62.1749 H         1             0.0813
     37 H16        21.1680   17.2746   62.6544 H         1             0.1352
     38 H17        20.0933   15.1859   63.3763 H         1             0.1399
     39 H18        23.9320   13.2715   63.5089 H         1             0.1463
     40 H19        24.9927   15.3639   62.7769 H         1             0.1457
@<TRIPOS>BOND
     1    1    2 1 
     2    1   24 1 
     3    2    3 1 
     4    2   14 1 
     5    2   25 1 
     6    3    4 1 
     7    3   26 1 
     8    3   27 1 
     9    4    5 1 
    10    4    6 1 
    11    4    7 1 
    12    7    8 1 
    13    7   28 1 
    14    7   29 1 
    15    8    9 1 
    16    8   30 1 
    17    8   31 1 
    18    9   13 1 
    19    9   10 1 
    20   10   11 2 
    21   10   32 1 
    22   11   12 1 
    23   11   33 1 
    24   12   13 2 
    25   12   34 1 
    26   14   15 1 
    27   14   35 1 
    28   14   36 1 
    29   15   16 1 
    30   16   21 ar
    31   16   17 ar
    32   17   18 ar
    33   17   37 1 
    34   18   19 ar
    35   18   38 1 
    36   19   20 ar
    37   19   22 1 
    38   20   21 ar
    39   20   39 1 
    40   21   40 1 
    41   22   23 3 
##########                 Name:            E43401028
##########          Protonation:                   53
##########               SMILES:   CC(C)[NH+](C)CC(=O)Nc1cc(on1)c2ccccc2
##########            Long Name:   isopropyl-methyl-[2-oxo-2-[(5-phenylisoxazol-3-yl)amino]ethyl]ammonium
##########          FlexRecCode: 1
##########               Number:                  502
##########   Ligand Source File: /raidb/db2/rgc/leads-emolecules-300/leads-emolecules-lt300-1g-0000075.db2.gz
##########           GlobalRank: 4149
##########                 Rank:                    1
##########               Setnum:                   25
##########             Matchnum:                 3651
##########                Cloud:                    1
##########        Electrostatic:           -13.269002
##########        Van der Waals:           -28.900011
##########  Ligand Polar Desolv:             5.889783
########## Ligand Apolar Desolv:            -3.777986
##########      Internal Energy:             0.000000
##########      Receptor Energy: 0.0
########## Receptor Desolvation:             0.000000
########## Receptor Hydrophobic:             0.000000
##########         Total Energy: -40.06
##########        Ligand Charge:             1.000000
##########            Arbitrary:    +999.9990
##########     heavy atom count:   20
##########           pose count:    1
##########        Ligand Energy:             0.000000
# num electro vdwattr vdwrepu polsolv apolsol rdesolv rhydroe totalscore fullpol fullapo
#   1    3.76   -1.35    0.80   -1.91   -0.06    0.00    0.00       1.24   -5.76   -0.18
#   2   -0.33   -0.54    0.03    0.61   -0.07    0.00    0.00      -0.29    2.01   -0.23
#   3    3.16   -0.72    0.09   -1.68   -0.06    0.00    0.00       0.79   -5.25   -0.18
#   4    4.39   -0.75    0.04   -4.38    0.06    0.00    0.00      -0.65  -11.28    0.15
#   5   -6.53   -0.01    0.00    3.10    0.12    0.00    0.00      -3.33   13.78    0.52
#   6    0.54   -1.33    0.26   -0.82   -0.19    0.00    0.00      -1.54   -1.94   -0.44
#   7    0.23   -0.66    0.08    0.01   -0.13    0.00    0.00      -0.46    0.04   -0.37
#   8   -1.33   -1.46    0.60    5.06   -0.25    0.00    0.00       2.61   12.57   -0.62
#   9    0.35   -1.37    0.28   -4.84    0.11    0.00    0.00      -5.48  -11.25    0.25
#  10   -0.20   -1.54    0.39   -5.21    0.73    0.00    0.00      -5.82  -12.00    1.69
#  11    1.26   -1.70    0.37    2.13   -1.17    0.00    0.00       0.88    4.01   -2.21
#  12   -1.33   -2.06    0.37   -1.58    0.79    0.00    0.00      -3.81   -2.60    1.31
#  13   -0.20   -2.25    1.06   -0.38   -0.06    0.00    0.00      -1.82   -0.62   -0.09
#  14    1.13   -2.00    0.47    0.28   -0.18    0.00    0.00      -0.31    0.48   -0.32
#  15   -2.43   -2.01    0.75   -1.34   -0.21    0.00    0.00      -5.24   -2.63   -0.42
#  16   -0.58   -2.25    0.53   -0.33   -0.25    0.00    0.00      -2.88   -0.54   -0.41
#  17   -1.02   -2.53    1.00   -0.42   -0.27    0.00    0.00      -3.25   -0.71   -0.45
#  18   -1.66   -2.66    1.12   -0.74   -0.29    0.00    0.00      -4.23   -1.20   -0.47
#  19   -0.88   -2.70    0.77   -0.59   -0.30    0.00    0.00      -3.71   -0.92   -0.47
#  20   -0.49   -3.68    1.20   -0.62   -0.32    0.00    0.00      -3.90   -0.93   -0.47
#  21   -0.35   -3.29    0.95   -0.45   -0.29    0.00    0.00      -3.43   -0.69   -0.45
#  22   -1.10   -0.28    0.05    1.01   -0.06    0.00    0.00      -0.38    3.65   -0.22
#  23   -2.53   -0.96    1.54    0.74   -0.11    0.00    0.00      -1.32    1.93   -0.28
#  24   -2.18   -0.51    0.47    0.41   -0.07    0.00    0.00      -1.87    1.72   -0.28
#  25   -1.35   -0.13    0.01    0.79   -0.04    0.00    0.00      -0.72    6.15   -0.28
#  26   -1.20   -0.40    0.22    0.42   -0.07    0.00    0.00      -1.02    1.77   -0.28
#  27   -1.18   -0.16    0.02    0.35   -0.03    0.00    0.00      -1.01    2.45   -0.23
#  28   -2.67   -0.32    0.06    0.49   -0.08    0.00    0.00      -2.52    1.63   -0.28
#  29   -0.51   -0.43    0.09    2.03   -0.12    0.00    0.00       1.06    4.94   -0.28
#  30   -0.74   -0.59    0.21    1.48   -0.08    0.00    0.00       0.28    3.86   -0.22
#  31   -1.85   -0.84    0.82    0.90   -0.08    0.00    0.00      -1.03    2.39   -0.20
#  32   -1.60   -0.31    0.11    1.88   -0.05    0.00    0.00       0.03    7.95   -0.21
#  33   -1.04   -0.18    0.01    1.44   -0.05    0.00    0.00       0.19    8.73   -0.28
#  34   -0.34   -0.02    0.00    2.99    0.17    0.00    0.00       2.80   10.57    0.59
#  35    2.51   -0.54    0.29    1.04   -0.07    0.00    0.00       3.23    2.82   -0.18
#  36    1.75   -0.50    0.12    1.12   -0.12    0.00    0.00       2.36    2.25   -0.25
#  37    1.73   -0.51    0.12    1.08   -0.14    0.00    0.00       2.28    2.17   -0.28
#  38    1.36   -0.46    0.07    0.81   -0.14    0.00    0.00       1.63    1.58   -0.28
#  39   -0.18   -1.24    0.93    0.72   -0.18    0.00    0.00       0.05    1.09   -0.28
#  40    0.35   -1.19    1.24    0.29   -0.18    0.00    0.00       0.52    0.46   -0.28
@<TRIPOS>MOLECULE
E43401028
   40    41     0     0     0
SMALL
USER_CHARGES


@<TRIPOS>ATOM
      1 C1         24.7084   18.5900   59.6838 C.3       1            -0.1888
      2 C2         24.4566   19.2075   61.0609 C.3       1             0.0229
      3 C3         24.2099   20.7098   60.9086 C.3       1            -0.1841
      4 N1         23.2788   18.5773   61.6721 N.4       1            -0.3712
      5 H1         22.4733   18.7279   61.0836 H         1             0.4308
      6 C4         23.0370   19.1703   62.9943 C.3       1            -0.0656
      7 C5         23.5158   17.1349   61.8182 C.3       1            -0.0305
      8 C6         22.3075   16.4884   62.4454 C.2       1             0.5183
      9 O1         21.2041   16.9558   62.2585 O.2       1            -0.4954
     10 N2         22.4531   15.3908   63.2138 N.am      1            -0.6114
     11 C7         21.3343   14.7922   63.7945 C.2       1             0.3179
     12 N3         21.1998   13.5194   64.0702 N.2       1            -0.3293
     13 O2         19.9220   13.3273   64.6491 O.3       1            -0.0493
     14 C8         19.3074   14.5240   64.7066 C.2       1             0.1509
     15 C9         20.1549   15.4531   64.1921 C.2       1            -0.2856
     16 C10        17.9532   14.7823   65.2411 C.ar      1            -0.0630
     17 C11        16.9657   15.3232   64.4164 C.ar      1            -0.0766
     18 C12        15.7040   15.5613   64.9212 C.ar      1            -0.1217
     19 C13        15.4168   15.2655   66.2419 C.ar      1            -0.0870
     20 C14        16.3913   14.7295   67.0647 C.ar      1            -0.1188
     21 C15        17.6553   14.4808   66.5707 C.ar      1            -0.0781
     22 H2         24.8841   17.5197   59.7922 H         1             0.0809
     23 H3         23.8382   18.7528   59.0481 H         1             0.0842
     24 H4         25.5823   19.0576   59.2303 H         1             0.1110
     25 H5         25.3269   19.0448   61.6967 H         1             0.1413
     26 H6         24.0305   21.1498   61.8896 H         1             0.0832
     27 H7         25.0839   21.1773   60.4551 H         1             0.0850
     28 H8         23.3397   20.8726   60.2727 H         1             0.1091
     29 H9         22.1631   18.7026   63.4478 H         1             0.1223
     30 H10        23.9073   19.0075   63.6300 H         1             0.1317
     31 H11        22.8613   20.2405   62.8858 H         1             0.1394
     32 H12        23.6952   16.6950   60.8373 H         1             0.1704
     33 H13        24.3859   16.9722   62.4542 H         1             0.1693
     34 H14        23.3356   15.0170   63.3633 H         1             0.4323
     35 H15        19.9582   16.5113   64.1014 H         1             0.1842
     36 H16        17.1888   15.5552   63.3855 H         1             0.1303
     37 H17        14.9389   15.9799   64.2841 H         1             0.1351
     38 H18        14.4277   15.4542   66.6322 H         1             0.1339
     39 H19        16.1610   14.5015   68.0950 H         1             0.1363
     40 H20        18.4139   14.0582   67.2128 H         1             0.1357
@<TRIPOS>BOND
     1    1    2 1 
     2    1   22 1 
     3    1   23 1 
     4    1   24 1 
     5    2    3 1 
     6    2    4 1 
     7    2   25 1 
     8    3   26 1 
     9    3   27 1 
    10    3   28 1 
    11    4    5 1 
    12    4    6 1 
    13    4    7 1 
    14    6   29 1 
    15    6   30 1 
    16    6   31 1 
    17    7    8 1 
    18    7   32 1 
    19    7   33 1 
    20    8    9 2 
    21    8   10 am
    22   10   11 1 
    23   10   34 1 
    24   11   15 1 
    25   11   12 2 
    26   12   13 1 
    27   13   14 1 
    28   14   15 2 
    29   14   16 1 
    30   15   35 1 
    31   16   21 ar
    32   16   17 ar
    33   17   18 ar
    34   17   36 1 
    35   18   19 ar
    36   18   37 1 
    37   19   20 ar
    38   19   38 1 
    39   20   21 ar
    40   20   39 1 
    41   21   40 1 
##########                 Name:            E31245626
##########          Protonation:                  100
##########               SMILES:   Cn1c2c(c(n1)c3ccccc3)nc([nH]2)c4ccsc4
##########            Long Name:   1-methyl-3-phenyl-5-(3-thienyl)-6H-imidazo[4,5-c]pyrazole
##########          FlexRecCode: 1
##########               Number:                  243
##########   Ligand Source File: /raidb/db2/rgc/leads-emolecules-300/leads-lt300-emolecules-1j-0000122.db2.gz
##########           GlobalRank: 4149
##########                 Rank:                    1
##########               Setnum:                   13
##########             Matchnum:                 2499
##########                Cloud:                    1
##########        Electrostatic:            -8.943583
##########        Van der Waals:           -32.585590
##########  Ligand Polar Desolv:             6.098871
########## Ligand Apolar Desolv:            -4.633024
##########      Internal Energy:             0.000000
##########      Receptor Energy: 0.0
########## Receptor Desolvation:             0.000000
########## Receptor Hydrophobic:             0.000000
##########         Total Energy: -40.06
##########        Ligand Charge:             0.000000
##########            Arbitrary:    +999.9990
##########     heavy atom count:   20
##########           pose count:    1
##########        Ligand Energy:             0.000000
# num electro vdwattr vdwrepu polsolv apolsol rdesolv rhydroe totalscore fullpol fullapo
#   1    0.57   -2.57    1.25    0.08   -0.39    0.00    0.00      -1.06    0.13   -0.61
#   2   -1.51   -1.89    0.26    0.99    0.77    0.00    0.00      -1.37    1.63    1.26
#   3   -1.01   -2.44    0.74    1.21    0.72    0.00    0.00      -0.79    1.99    1.18
#   4    1.60   -1.87    0.34   -0.79   -0.44    0.00    0.00      -1.16   -1.35   -0.76
#   5   -0.58   -1.77    0.37    0.56   -0.44    0.00    0.00      -1.86    1.09   -0.86
#   6    0.84   -1.64    0.40   -0.57   -1.29    0.00    0.00      -2.26   -1.05   -2.38
#   7   -0.47   -1.64    0.68    0.48    0.48    0.00    0.00      -0.47    1.13    1.15
#   8    0.61   -1.62    0.36   -0.69   -0.94    0.00    0.00      -2.29   -1.57   -2.14
#   9   -5.64   -3.20    3.24    2.02    0.97    0.00    0.00      -2.61    4.29    2.05
#  10    0.32   -1.36    0.17    0.10   -0.17    0.00    0.00      -0.94    0.23   -0.40
#  11    1.63   -1.66    0.23   -0.19   -0.10    0.00    0.00      -0.09   -0.47   -0.24
#  12   -2.45   -2.83    1.07    0.27   -0.30    0.00    0.00      -4.24    0.74   -0.81
#  13    4.03   -1.67    0.33   -0.11   -0.12    0.00    0.00       2.46   -0.26   -0.27
#  14    1.52   -1.48    0.24    0.17   -0.21    0.00    0.00       0.24    0.36   -0.45
#  15   -0.25   -2.22    0.59    0.26   -0.25    0.00    0.00      -1.87    0.41   -0.40
#  16   -1.17   -2.66    0.81    0.39   -0.27    0.00    0.00      -2.90    0.66   -0.46
#  17   -1.81   -2.81    0.93    0.22   -0.28    0.00    0.00      -3.74    0.37   -0.47
#  18   -1.44   -2.54    0.72    0.08   -0.30    0.00    0.00      -3.49    0.13   -0.47
#  19   -1.07   -3.19    1.24    0.16   -0.31    0.00    0.00      -3.16    0.25   -0.47
#  20   -0.64   -2.70    0.54    0.35   -0.29    0.00    0.00      -2.74    0.54   -0.45
#  21    0.45   -1.47    1.60    0.17   -0.18    0.00    0.00       0.57    0.27   -0.28
#  22    0.38   -0.94    0.54    0.13   -0.16    0.00    0.00      -0.04    0.23   -0.28
#  23    0.37   -0.79    0.41    0.32   -0.15    0.00    0.00       0.16    0.58   -0.28
#  24   -0.73   -0.02    0.00    0.34    0.15    0.00    0.00      -0.27    1.33    0.57
#  25   -0.76   -0.54    0.17    0.50   -0.10    0.00    0.00      -0.73    1.32   -0.26
#  26   -5.30   -0.49    0.19    0.40   -0.11    0.00    0.00      -5.31    1.03   -0.28
#  27   -1.96   -0.33    0.07   -0.23   -0.11    0.00    0.00      -2.55   -0.60   -0.28
#  28    1.71   -0.64    0.23   -0.47   -0.15    0.00    0.00       0.68   -0.87   -0.28
#  29    1.23   -0.85    0.83   -0.02   -0.15    0.00    0.00       1.03   -0.04   -0.28
#  30    1.59   -0.42    0.06    0.21   -0.15    0.00    0.00       1.29    0.38   -0.28
#  31    0.55   -0.95    0.50    0.11   -0.17    0.00    0.00       0.04    0.18   -0.28
#  32    0.43   -0.68    0.17   -0.35   -0.17    0.00    0.00      -0.61   -0.58   -0.28
@<TRIPOS>MOLECULE
E31245626
   32    35     0     0     0
SMALL
USER_CHARGES


@<TRIPOS>ATOM
      1 C1         21.5600   12.3795   63.6762 C.3       1             0.1054
      2 N1         20.6748   13.5330   63.8558 N.pl3     1            -0.3732
      3 N2         19.3900   13.4889   64.4069 N.2       1            -0.2333
      4 C2         18.8794   14.7000   64.4182 C.2       1             0.1841
      5 C3         19.8780   15.6015   63.8430 C.2       1            -0.0600
      6 C4         20.9758   14.8161   63.5177 C.2       1             0.1985
      7 N3         21.9168   15.6650   62.9840 N.pl3     1            -0.5651
      8 C5         21.3838   16.9270   62.9983 C.2       1             0.3066
      9 N4         20.1736   16.8798   63.5018 N.2       1            -0.4235
     10 C6         22.0617   18.1474   62.5139 C.2       1            -0.0557
     11 C7         23.2416   18.5580   63.0610 C.2       1            -0.2486
     12 S1         23.6156   19.9550   62.2066 S.3       1             0.1911
     13 C8         22.2099   20.0099   61.1134 C.2       1            -0.2010
     14 C9         21.5152   18.9095   61.4793 C.2       1            -0.1177
     15 C10        17.5383   15.0822   64.9211 C.ar      1            -0.0223
     16 C11        16.6112   15.6719   64.0631 C.ar      1            -0.0789
     17 C12        15.3643   16.0258   64.5368 C.ar      1            -0.1217
     18 C13        15.0336   15.7963   65.8605 C.ar      1            -0.1071
     19 C14        15.9496   15.2120   66.7164 C.ar      1            -0.1238
     20 C15        17.1973   14.8482   66.2525 C.ar      1            -0.0879
     21 H1         21.0605   11.4791   64.0339 H         1             0.0736
     22 H2         21.7994   12.2663   62.6188 H         1             0.0961
     23 H3         22.4785   12.5347   64.2421 H         1             0.0799
     24 H4         22.7959   15.4163   62.6580 H         1             0.4204
     25 H5         23.8039   18.0936   63.8577 H         1             0.1812
     26 H6         21.9747   20.7358   60.3492 H         1             0.1925
     27 H7         20.5862   18.6369   61.0004 H         1             0.1544
     28 H8         16.8685   15.8518   63.0297 H         1             0.1297
     29 H9         14.6455   16.4830   63.8731 H         1             0.1277
     30 H10        14.0567   16.0749   66.2268 H         1             0.1249
     31 H11        15.6861   15.0356   67.7488 H         1             0.1269
     32 H12        17.9100   14.3877   66.9205 H         1             0.1267
@<TRIPOS>BOND
     1    1    2 1 
     2    1   21 1 
     3    1   22 1 
     4    1   23 1 
     5    2    6 1 
     6    2    3 1 
     7    3    4 2 
     8    4    5 1 
     9    4   15 1 
    10    5    9 1 
    11    5    6 2 
    12    6    7 1 
    13    7    8 1 
    14    7   24 1 
    15    8    9 2 
    16    8   10 1 
    17   10   14 1 
    18   10   11 2 
    19   11   12 1 
    20   11   25 1 
    21   12   13 1 
    22   13   14 2 
    23   13   26 1 
    24   14   27 1 
    25   15   20 ar
    26   15   16 ar
    27   16   17 ar
    28   16   28 1 
    29   17   18 ar
    30   17   29 1 
    31   18   19 ar
    32   18   30 1 
    33   19   20 ar
    34   19   31 1 
    35   20   32 1 
##########                 Name:            E46154040
##########          Protonation:                   98
##########               SMILES:   c1cnncc1C(=O)NC[C@@H]2CC[C@]3(O2)C[NH2+]CCOC3
##########            Long Name:   S)-4,10-dioxa-7-azoniaspiro[4.6]undecan-3-yl]methyl]pyridazine-4-carboxamide
##########          FlexRecCode: 1
##########               Number:                  317
##########   Ligand Source File: /raidb/db2/rgc/leads-emolecules-300/leads-emolecules-2e-0000408.db2.gz
##########           GlobalRank: 4168
##########                 Rank:                    1
##########               Setnum:                   92
##########             Matchnum:                 4773
##########                Cloud:                    1
##########        Electrostatic:           -28.922056
##########        Van der Waals:           -22.934460
##########  Ligand Polar Desolv:            11.505015
########## Ligand Apolar Desolv:             0.300355
##########      Internal Energy:             0.000000
##########      Receptor Energy: 0.0
########## Receptor Desolvation:             0.000000
########## Receptor Hydrophobic:             0.000000
##########         Total Energy: -40.05
##########        Ligand Charge:             1.000000
##########            Arbitrary:    +999.9990
##########     heavy atom count:   21
##########           pose count:    1
##########        Ligand Energy:             0.000000
# num electro vdwattr vdwrepu polsolv apolsol rdesolv rhydroe totalscore fullpol fullapo
#   1   -8.28   -4.12    5.09   -1.49    0.20    0.00    0.00      -8.60   -3.03    0.40
#   2    3.88   -2.03    0.73    2.83   -0.30    0.00    0.00       5.11    6.14   -0.66
#   3   -0.45   -1.52    0.23   -5.13    1.01    0.00    0.00      -5.85  -11.67    2.30
#   4   -0.39   -1.43    0.42    0.85   -0.19    0.00    0.00      -0.74    1.85   -0.41
#   5   -0.60   -0.78    0.06    0.83   -0.05    0.00    0.00      -0.54    2.04   -0.13
#   6    1.31   -0.59    0.04   -1.12   -0.09    0.00    0.00      -0.44   -3.40   -0.27
#   7    1.58   -0.47    0.03   -0.85   -0.06    0.00    0.00       0.22   -3.27   -0.25
#   8   -0.79   -0.70    0.09    0.52   -0.02    0.00    0.00      -0.90    1.72   -0.05
#   9    0.94   -1.02    0.31   -0.28   -0.12    0.00    0.00      -0.18   -0.85   -0.37
#  10   12.99   -2.42    1.84   -6.20    0.31    0.00    0.00       6.52  -16.76    0.84
#  11  -15.35   -0.14    0.03    8.05    0.24    0.00    0.00      -7.16   18.94    0.57
#  12  -11.89   -0.10    0.02    5.22    0.16    0.00    0.00      -6.59   14.36    0.43
#  13    0.62   -1.32    0.60   -0.07   -0.16    0.00    0.00      -0.33   -0.21   -0.49
#  14   -0.14   -0.67    0.11    0.00   -0.03    0.00    0.00      -0.73    0.00   -0.12
#  15    0.28   -2.00    1.11   -2.49    0.35    0.00    0.00      -2.75   -8.43    1.19
#  16   -0.24   -0.80    0.15    0.25   -0.03    0.00    0.00      -0.66    0.94   -0.10
#  17    4.83   -2.20    1.20   -3.52    0.40    0.00    0.00       0.70   -9.03    1.02
#  18   -0.68   -1.62    0.33   -0.88   -0.23    0.00    0.00      -3.07   -1.59   -0.41
#  19    0.37   -1.85    0.34    0.84   -0.56    0.00    0.00      -0.86    1.42   -0.94
#  20   -0.68   -2.94    1.06   -1.65    0.75    0.00    0.00      -3.47   -2.59    1.17
#  21   -0.66   -3.87    1.33   -1.19    0.79    0.00    0.00      -3.60   -1.78    1.18
#  22    0.22   -3.36    1.30    0.17   -0.62    0.00    0.00      -2.29    0.27   -0.99
#  23   -0.13   -1.90    0.45   -0.39   -0.25    0.00    0.00      -2.21   -0.70   -0.45
#  24   -0.76   -0.02    0.00    2.50    0.10    0.00    0.00       1.83   10.56    0.44
#  25   -0.24   -0.83    1.10    0.08   -0.12    0.00    0.00      -0.01    0.20   -0.28
#  26   -0.18   -0.74    0.38    0.52   -0.14    0.00    0.00      -0.16    1.05   -0.28
#  27   -1.29   -0.19    0.01    1.19   -0.06    0.00    0.00      -0.35    5.22   -0.28
#  28   -0.68   -0.33    0.11    0.08   -0.07    0.00    0.00      -0.89    0.35   -0.28
#  29   -0.90   -0.16    0.01    0.37   -0.05    0.00    0.00      -0.73    2.21   -0.28
#  30   -0.75   -0.13    0.01    0.15   -0.03    0.00    0.00      -0.75    1.23   -0.26
#  31   -1.46   -0.18    0.02    0.63   -0.04    0.00    0.00      -1.02    4.07   -0.25
#  32   -2.47   -0.29    0.13    1.27   -0.05    0.00    0.00      -1.42    5.90   -0.23
#  33   -4.14   -0.54    0.48    2.24   -0.08    0.00    0.00      -2.03    7.39   -0.26
#  34   -2.12   -0.41    0.19    1.72   -0.07    0.00    0.00      -0.69    6.55   -0.28
#  35   -2.73   -0.52    0.36    1.30   -0.08    0.00    0.00      -1.67    4.37   -0.28
#  36   -0.38   -0.10    0.00    0.24   -0.02    0.00    0.00      -0.25    2.72   -0.22
#  37    0.02   -0.17    0.01    0.32   -0.05    0.00    0.00       0.14    1.82   -0.28
#  38   -0.15   -0.48    0.31    0.17   -0.07    0.00    0.00      -0.22    0.65   -0.28
#  39   -0.36   -0.09    0.00    0.27   -0.02    0.00    0.00      -0.21    2.78   -0.26
#  40    1.47   -0.37    0.07    2.38   -0.08    0.00    0.00       3.47    6.25   -0.22
#  41    1.29   -1.51    2.19    1.26   -0.16    0.00    0.00       3.08    2.18   -0.28
#  42    0.13   -0.33    0.06    0.49   -0.09    0.00    0.00       0.26    1.39   -0.27
@<TRIPOS>MOLECULE
E46154040
   42    44     0     0     0
SMALL
USER_CHARGES


@<TRIPOS>ATOM
      1 O1         19.9087   16.9066   64.1584 O.2       1            -0.5072
      2 C1         20.8323   16.2693   63.6919 C.2       1             0.5673
      3 N1         21.9296   16.9067   63.2381 N.am      1            -0.7248
      4 C2         22.0090   18.3680   63.3071 C.3       1             0.1245
      5 C3         22.8738   18.8866   62.1564 C.3       1             0.0560
      6 C4         24.1743   18.0534   62.0318 C.3       1            -0.1453
      7 C5         25.1285   19.0456   61.3268 C.3       1            -0.1426
      8 C6         24.5097   20.4365   61.6018 C.3       1             0.0626
      9 C7         23.9999   20.9902   60.2547 C.3       1            -0.0437
     10 N2         22.9777   21.9645   60.5209 N.4       1            -0.4991
     11 H1         22.2794   21.9102   59.7946 H         1             0.4301
     12 H2         22.5439   21.7474   61.4056 H         1             0.4311
     13 C8         23.5054   23.3528   60.5759 C.3       1            -0.0349
     14 C9         24.8509   23.4340   61.3228 C.3       1             0.0309
     15 O2         24.8974   22.6408   62.4755 O.3       1            -0.3457
     16 C10        25.4759   21.3376   62.2342 C.3       1             0.0495
     17 O3         23.3558   20.2159   62.4415 O.3       1            -0.3587
     18 C11        20.7545   14.7914   63.6278 C.ar      1            -0.1403
     19 C12        19.5233   14.1352   63.5438 C.ar      1             0.0637
     20 N3         19.4883   12.8180   63.4878 N.ar      1            -0.2393
     21 N4         20.5524   12.1020   63.5073 N.ar      1            -0.2180
     22 C13        21.7594   12.6278   63.5849 C.ar      1             0.0497
     23 C14        21.9126   14.0035   63.6434 C.ar      1            -0.0501
     24 H3         22.6667   16.3980   62.8657 H         1             0.3963
     25 H4         21.0074   18.7904   63.2279 H         1             0.0904
     26 H5         22.4537   18.6631   64.2575 H         1             0.0982
     27 H6         22.3146   18.8731   61.2208 H         1             0.0866
     28 H7         24.5560   17.7789   63.0152 H         1             0.0978
     29 H8         24.0115   17.1675   61.4180 H         1             0.1020
     30 H9         26.1284   18.9823   61.7556 H         1             0.1030
     31 H10        25.1594   18.8478   60.2553 H         1             0.0960
     32 H11        24.8231   21.4605   59.7169 H         1             0.1416
     33 H12        23.5851   20.1778   59.6580 H         1             0.1423
     34 H13        23.6427   23.7198   59.5586 H         1             0.1392
     35 H14        22.7796   23.9875   61.0843 H         1             0.1393
     36 H15        25.6450   23.1155   60.6475 H         1             0.0772
     37 H16        25.0316   24.4712   61.6053 H         1             0.1299
     38 H17        25.7967   20.9079   63.1833 H         1             0.1275
     39 H18        26.3423   21.4467   61.5818 H         1             0.0947
     40 H19        18.6053   14.7039   63.5252 H         1             0.1651
     41 H20        22.6282   11.9864   63.5989 H         1             0.1885
     42 H21        22.8926   14.4536   63.7029 H         1             0.1684
@<TRIPOS>BOND
     1    1    2 2 
     2    2    3 am
     3    2   18 1 
     4    3    4 1 
     5    3   24 1 
     6    4    5 1 
     7    4   25 1 
     8    4   26 1 
     9    5   17 1 
    10    5    6 1 
    11    5   27 1 
    12    6    7 1 
    13    6   28 1 
    14    6   29 1 
    15    7    8 1 
    16    7   30 1 
    17    7   31 1 
    18    8   16 1 
    19    8    9 1 
    20    8   17 1 
    21    9   10 1 
    22    9   32 1 
    23    9   33 1 
    24   10   11 1 
    25   10   12 1 
    26   10   13 1 
    27   13   14 1 
    28   13   34 1 
    29   13   35 1 
    30   14   15 1 
    31   14   36 1 
    32   14   37 1 
    33   15   16 1 
    34   16   38 1 
    35   16   39 1 
    36   18   23 ar
    37   18   19 ar
    38   19   20 ar
    39   19   40 1 
    40   20   21 ar
    41   21   22 ar
    42   22   23 ar
    43   22   41 1 
    44   23   42 1 
##########                 Name:            E48332800
##########          Protonation:                   27
##########               SMILES:   CC[NH+](CC)[C@@H](c1ccccc1)C(=O)OCc2ccoc2
##########            Long Name:   diethyl-[(1S)-2-(3-furylmethoxy)-2-oxo-1-phenyl-ethyl]ammonium
##########          FlexRecCode: 1
##########               Number:                    8
##########   Ligand Source File: /raidb/db2/rgc/leads-emolecules-300/leads-emolecules-2c-0000009.db2.gz
##########           GlobalRank: 4186
##########                 Rank:                    1
##########               Setnum:                  191
##########             Matchnum:                 2055
##########                Cloud:                    1
##########        Electrostatic:           -18.522505
##########        Van der Waals:           -24.152781
##########  Ligand Polar Desolv:             5.892889
########## Ligand Apolar Desolv:            -3.257749
##########      Internal Energy:             0.000000
##########      Receptor Energy: 0.0
########## Receptor Desolvation:             0.000000
########## Receptor Hydrophobic:             0.000000
##########         Total Energy: -40.04
##########        Ligand Charge:             1.000000
##########            Arbitrary:    +999.9990
##########     heavy atom count:   21
##########           pose count:    1
##########        Ligand Energy:             0.000000
# num electro vdwattr vdwrepu polsolv apolsol rdesolv rhydroe totalscore fullpol fullapo
#   1    4.28   -1.30    0.27   -2.60   -0.08    0.00    0.00       0.56   -5.17   -0.16
#   2    0.06   -0.75    0.05    0.12   -0.17    0.00    0.00      -0.68    0.29   -0.40
#   3    6.60   -0.89    0.14   -3.35    0.06    0.00    0.00       2.56  -10.23    0.19
#   4  -11.17   -0.04    0.00    3.23    0.11    0.00    0.00      -7.87   11.95    0.39
#   5    0.22   -0.49    0.03   -0.04   -0.11    0.00    0.00      -0.38   -0.14   -0.41
#   6    2.26   -0.58    0.05   -1.34   -0.04    0.00    0.00       0.35   -4.82   -0.16
#   7   -1.10   -0.78    0.14    1.02   -0.06    0.00    0.00      -0.78    3.06   -0.17
#   8   -3.20   -0.95    0.09    2.93   -0.03    0.00    0.00      -1.15    9.13   -0.09
#   9    3.16   -1.41    0.41   -2.90   -0.10    0.00    0.00      -0.83   -8.91   -0.31
#  10    1.26   -1.25    0.54   -2.08    0.10    0.00    0.00      -1.43   -5.71    0.27
#  11    0.06   -1.09    0.21    0.91   -0.05    0.00    0.00       0.03    2.10   -0.12
#  12   -0.38   -1.86    0.46   -1.24   -0.20    0.00    0.00      -3.22   -2.45   -0.40
#  13    0.00   -3.07    1.39   -0.08   -0.15    0.00    0.00      -1.90   -0.14   -0.27
#  14   -1.20   -4.85    4.50   -1.09    0.16    0.00    0.00      -2.48   -1.75    0.25
#  15   -0.10   -2.86    0.68   -0.41   -0.17    0.00    0.00      -2.86   -0.63   -0.27
#  16   -0.79   -1.77    0.34   -1.28   -0.30    0.00    0.00      -3.79   -2.16   -0.51
#  17    1.21   -1.06    0.13   -0.78   -0.05    0.00    0.00      -0.56   -2.45   -0.17
#  18    0.40   -0.95    0.11   -0.59   -0.09    0.00    0.00      -1.13   -1.86   -0.28
#  19    0.10   -1.05    0.29   -0.59   -0.12    0.00    0.00      -1.36   -2.23   -0.46
#  20   -0.01   -0.94    0.21   -0.47   -0.12    0.00    0.00      -1.33   -1.83   -0.46
#  21    0.08   -1.09    0.14   -0.70   -0.14    0.00    0.00      -1.72   -2.33   -0.46
#  22    0.65   -1.46    0.36   -0.46   -0.13    0.00    0.00      -1.03   -1.40   -0.40
#  23   -1.45   -0.34    0.04    0.65   -0.09    0.00    0.00      -1.19    1.59   -0.22
#  24   -3.02   -0.81    0.54    0.66   -0.06    0.00    0.00      -2.69    1.39   -0.12
#  25   -1.60   -0.50    0.23    0.66   -0.11    0.00    0.00      -1.32    1.68   -0.28
#  26   -3.06   -0.28    0.04    1.74   -0.08    0.00    0.00      -1.65    5.91   -0.27
#  27   -1.57   -0.20    0.01    1.19   -0.06    0.00    0.00      -0.62    5.53   -0.27
#  28   -1.23   -0.23    0.04    1.20   -0.05    0.00    0.00      -0.27    6.11   -0.26
#  29   -1.13   -0.10    0.00    0.54   -0.03    0.00    0.00      -0.71    5.47   -0.26
#  30   -0.39   -0.15    0.01    0.13   -0.02    0.00    0.00      -0.42    0.86   -0.15
#  31   -1.23   -0.16    0.02    0.21   -0.04    0.00    0.00      -1.20    1.38   -0.26
#  32   -1.66   -0.37    0.19    0.44   -0.07    0.00    0.00      -1.45    1.84   -0.28
#  33   -2.37   -0.61    0.66    2.48   -0.09    0.00    0.00       0.08    7.28   -0.27
#  34    0.03   -0.52    0.29    0.26   -0.09    0.00    0.00      -0.03    0.78   -0.28
#  35    0.25   -0.42    0.13    0.61   -0.10    0.00    0.00       0.47    1.74   -0.28
#  36   -0.65   -0.65    0.38    1.79   -0.12    0.00    0.00       0.74    4.14   -0.28
#  37    0.09   -0.73    0.25    1.66   -0.18    0.00    0.00       1.10    2.65   -0.28
#  38    0.92   -0.26    0.02    0.54   -0.09    0.00    0.00       1.12    1.61   -0.28
#  39   -0.54   -0.16    0.01    0.66   -0.06    0.00    0.00      -0.09    2.94   -0.25
#  40   -0.04   -0.18    0.02    0.29   -0.05    0.00    0.00       0.04    1.60   -0.28
#  41    0.11   -0.13    0.01    0.18   -0.04    0.00    0.00       0.13    1.30   -0.28
#  42   -0.04   -0.22    0.02    0.48   -0.07    0.00    0.00       0.18    2.02   -0.28
#  43   -2.35   -0.60    0.49    1.29   -0.08    0.00    0.00      -1.26    4.38   -0.28
@<TRIPOS>MOLECULE
E48332800
   43    44     0     0     0
SMALL
USER_CHARGES


@<TRIPOS>ATOM
      1 C1         21.7555   18.5950   59.9567 C.3       1            -0.2032
      2 C2         22.7713   19.2538   60.8921 C.3       1            -0.0035
      3 N1         24.1304   18.8710   60.4867 N.4       1            -0.3776
      4 H1         24.2976   19.1766   59.5399 H         1             0.4284
      5 C3         25.1057   19.5035   61.3848 C.3       1            -0.0197
      6 C4         24.9596   21.0245   61.3064 C.3       1            -0.1986
      7 C5         24.2708   17.4106   60.5620 C.3       1             0.0922
      8 C6         24.0212   16.9542   61.9763 C.2       1             0.4610
      9 O1         24.7193   17.3613   62.8746 O.2       1            -0.4762
     10 O2         23.0233   16.0955   62.2382 O.3       1            -0.3240
     11 C7         22.8439   15.7055   63.6012 C.3       1             0.1421
     12 C8         22.2769   14.3102   63.6540 C.2       1            -0.2095
     13 C9         22.9762   13.1621   63.7034 C.2       1             0.0049
     14 O3         22.1083   12.1379   63.7398 O.3       1            -0.1668
     15 C10        20.8527   12.6138   63.7143 C.2       1            -0.0262
     16 C11        20.9081   13.9569   63.6672 C.2       1            -0.1996
     17 C12        25.6651   17.0180   60.1461 C.ar      1            -0.1484
     18 C13        26.2510   15.8839   60.6768 C.ar      1            -0.1027
     19 C14        27.5299   15.5237   60.2954 C.ar      1            -0.1080
     20 C15        28.2228   16.2973   59.3831 C.ar      1            -0.0790
     21 C16        27.6366   17.4309   58.8517 C.ar      1            -0.1094
     22 C17        26.3559   17.7886   59.2299 C.ar      1            -0.0793
     23 H2         20.7470   18.8791   60.2575 H         1             0.0785
     24 H3         21.9362   18.9250   58.9338 H         1             0.0987
     25 H4         21.8596   17.5114   60.0126 H         1             0.1008
     26 H5         22.6672   20.3373   60.8364 H         1             0.1372
     27 H6         22.5907   18.9234   61.9151 H         1             0.1322
     28 H7         24.9251   19.1735   62.4079 H         1             0.1413
     29 H8         26.1142   19.2195   61.0841 H         1             0.1320
     30 H9         25.6833   21.4939   61.9728 H         1             0.0814
     31 H10        25.1403   21.3547   60.2834 H         1             0.0894
     32 H11        23.9512   21.3088   61.6072 H         1             0.1038
     33 H12        23.5472   16.9411   59.8957 H         1             0.1720
     34 H13        23.8051   15.7267   64.1147 H         1             0.0902
     35 H14        22.1560   16.3960   64.0892 H         1             0.0876
     36 H15        24.0529   13.0783   63.7117 H         1             0.2060
     37 H16        19.9514   12.0190   63.7328 H         1             0.2103
     38 H17        20.0681   14.6352   63.6415 H         1             0.1527
     39 H18        25.7097   15.2795   61.3897 H         1             0.1296
     40 H19        27.9880   14.6381   60.7106 H         1             0.1394
     41 H20        29.2223   16.0164   59.0856 H         1             0.1396
     42 H21        28.1779   18.0355   58.1392 H         1             0.1417
     43 H22        25.8965   18.6722   58.8120 H         1             0.1386
@<TRIPOS>BOND
     1    1    2 1 
     2    1   23 1 
     3    1   24 1 
     4    1   25 1 
     5    2    3 1 
     6    2   26 1 
     7    2   27 1 
     8    3    4 1 
     9    3    5 1 
    10    3    7 1 
    11    5    6 1 
    12    5   28 1 
    13    5   29 1 
    14    6   30 1 
    15    6   31 1 
    16    6   32 1 
    17    7    8 1 
    18    7   17 1 
    19    7   33 1 
    20    8    9 2 
    21    8   10 1 
    22   10   11 1 
    23   11   12 1 
    24   11   34 1 
    25   11   35 1 
    26   12   16 1 
    27   12   13 2 
    28   13   14 1 
    29   13   36 1 
    30   14   15 1 
    31   15   16 2 
    32   15   37 1 
    33   16   38 1 
    34   17   22 ar
    35   17   18 ar
    36   18   19 ar
    37   18   39 1 
    38   19   20 ar
    39   19   40 1 
    40   20   21 ar
    41   20   41 1 
    42   21   22 ar
    43   21   42 1 
    44   22   43 1 
##########                 Name:             E4661433
##########          Protonation:                  100
##########               SMILES:   CCCCNc1cc(nc2n1ncc2c3ccccc3)C
##########            Long Name:   N-butyl-5-methyl-3-phenyl-pyrazolo[1,5-a]pyrimidin-7-amine
##########          FlexRecCode: 1
##########               Number:                  238
##########   Ligand Source File: /raidb/db2/rgc/leads-emolecules-300/leads-lt300-emolecules-1j-0000154.db2.gz
##########           GlobalRank: 4186
##########                 Rank:                    1
##########               Setnum:                   15
##########             Matchnum:                 6173
##########                Cloud:                    1
##########        Electrostatic:            -9.727137
##########        Van der Waals:           -30.511827
##########  Ligand Polar Desolv:             4.384880
########## Ligand Apolar Desolv:            -4.182730
##########      Internal Energy:             0.000000
##########      Receptor Energy: 0.0
########## Receptor Desolvation:             0.000000
########## Receptor Hydrophobic:             0.000000
##########         Total Energy: -40.04
##########        Ligand Charge:             0.000000
##########            Arbitrary:    +999.9990
##########     heavy atom count:   21
##########           pose count:    1
##########        Ligand Energy:             0.000000
# num electro vdwattr vdwrepu polsolv apolsol rdesolv rhydroe totalscore fullpol fullapo
#   1   -0.11   -0.51    0.08   -0.11   -0.05    0.00    0.00      -0.70   -0.46   -0.19
#   2    0.06   -0.65    0.15   -0.14   -0.07    0.00    0.00      -0.66   -0.52   -0.25
#   3    0.25   -1.15    0.39   -0.19   -0.08    0.00    0.00      -0.79   -0.51   -0.22
#   4   -0.37   -0.91    0.14    0.20   -0.14    0.00    0.00      -1.08    0.52   -0.37
#   5    2.39   -1.86    0.46   -0.22    0.75    0.00    0.00       1.52   -0.49    1.69
#   6   -0.36   -1.61    0.39   -0.47   -0.91    0.00    0.00      -2.97   -1.06   -2.08
#   7    0.82   -1.28    0.17   -0.01   -0.16    0.00    0.00      -0.47   -0.03   -0.42
#   8   -0.21   -1.47    0.22   -0.21   -0.33    0.00    0.00      -1.99   -0.48   -0.75
#   9    0.67   -1.13    0.17   -0.10   -0.09    0.00    0.00      -0.48   -0.23   -0.21
#  10   -3.10   -2.00    0.62    1.69    0.88    0.00    0.00      -1.92    3.71    1.93
#  11    1.80   -1.67    0.36   -1.09   -1.06    0.00    0.00      -1.65   -2.21   -2.14
#  12   -1.53   -1.68    0.24    1.07   -0.23    0.00    0.00      -2.14    1.84   -0.40
#  13    0.46   -2.34    0.65   -0.37   -0.64    0.00    0.00      -2.25   -0.60   -1.03
#  14   -1.26   -2.28    0.40    1.36    0.79    0.00    0.00      -1.00    2.22    1.28
#  15   -0.84   -1.72    0.38    1.11    0.39    0.00    0.00      -0.68    2.16    0.76
#  16    0.16   -1.92    0.38    0.02   -0.23    0.00    0.00      -1.61    0.03   -0.39
#  17   -0.88   -2.32    0.45    0.50   -0.29    0.00    0.00      -2.54    0.80   -0.46
#  18   -1.36   -2.50    0.58    0.34   -0.31    0.00    0.00      -3.25    0.51   -0.47
#  19   -2.02   -2.65    0.84    0.21   -0.29    0.00    0.00      -3.91    0.34   -0.47
#  20   -1.81   -3.30    1.22    0.19   -0.28    0.00    0.00      -3.99    0.31   -0.47
#  21   -1.61   -2.68    0.88    0.32   -0.27    0.00    0.00      -3.36    0.55   -0.46
#  22    0.06   -0.08    0.00    0.01   -0.02    0.00    0.00      -0.02    0.16   -0.28
#  23    0.08   -0.29    0.19    0.03   -0.06    0.00    0.00      -0.06    0.12   -0.28
#  24    0.03   -0.16    0.01    0.02   -0.05    0.00    0.00      -0.15    0.12   -0.28
#  25   -0.03   -0.31    0.12    0.09   -0.06    0.00    0.00      -0.20    0.39   -0.28
#  26   -0.05   -0.10    0.00    0.04   -0.03    0.00    0.00      -0.14    0.39   -0.28
#  27   -0.29   -0.46    0.22    0.08   -0.09    0.00    0.00      -0.55    0.23   -0.28
#  28    0.00   -0.89    1.81    0.09   -0.11    0.00    0.00       0.89    0.22   -0.28
#  29   -0.18   -0.46    0.19    0.16   -0.08    0.00    0.00      -0.38    0.56   -0.27
#  30   -0.29   -0.16    0.01    0.10   -0.05    0.00    0.00      -0.39    0.56   -0.27
#  31   -2.87   -0.06    0.01   -0.02    0.24    0.00    0.00      -2.71   -0.04    0.57
#  32   -0.82   -0.19    0.01    0.20   -0.04    0.00    0.00      -0.84    1.05   -0.23
#  33   -0.54   -0.65    0.38    0.15   -0.11    0.00    0.00      -0.78    0.36   -0.28
#  34   -0.48   -0.48    0.09    0.02   -0.12    0.00    0.00      -0.97    0.05   -0.28
#  35   -0.97   -0.19    0.01    0.16   -0.06    0.00    0.00      -1.05    0.76   -0.28
#  36    0.03   -0.72    0.31   -0.14   -0.16    0.00    0.00      -0.68   -0.24   -0.28
#  37    0.60   -0.60    0.19   -0.41   -0.16    0.00    0.00      -0.38   -0.74   -0.28
#  38    0.98   -0.56    0.14   -0.14   -0.15    0.00    0.00       0.27   -0.25   -0.28
#  39    1.83   -0.47    0.09    0.02   -0.13    0.00    0.00       1.34    0.04   -0.28
#  40    0.79   -1.41    2.65    0.02   -0.17    0.00    0.00       1.88    0.04   -0.28
#  41    1.26   -0.75    0.57   -0.17   -0.14    0.00    0.00       0.78   -0.34   -0.28
@<TRIPOS>MOLECULE
E4661433
   41    43     0     0     0
SMALL
USER_CHARGES


@<TRIPOS>ATOM
      1 C1         28.8741   13.1287   64.3298 C.3       1            -0.1546
      2 C2         27.9235   14.1852   63.7630 C.3       1            -0.1201
      3 C3         26.5034   13.6182   63.7114 C.3       1            -0.1339
      4 C4         25.5527   14.6746   63.1446 C.3       1             0.1204
      5 N1         24.1929   14.1319   63.0952 N.pl3     1            -0.7111
      6 C5         23.1100   14.9733   63.2295 C.2       1             0.4856
      7 C6         23.2394   16.3264   62.9962 C.2       1            -0.3289
      8 C7         22.1245   17.1513   63.1401 C.2       1             0.2455
      9 C8         22.2498   18.6319   62.8888 C.3       1            -0.1070
     10 N2         20.9633   16.6432   63.4939 N.2       1            -0.5100
     11 C9         20.8216   15.3337   63.7236 C.2       1             0.3239
     12 C10        19.7220   14.5540   64.1033 C.2       1            -0.2229
     13 C11        20.1656   13.2291   64.1953 C.2       1             0.1201
     14 N3         21.4406   13.1883   63.8964 N.2       1            -0.3300
     15 N4         21.8843   14.4795   63.5916 N.pl3     1            -0.3469
     16 C12        18.3466   15.0400   64.3597 C.ar      1             0.0144
     17 C13        17.7634   14.8621   65.6142 C.ar      1            -0.0983
     18 C14        16.4818   15.3170   65.8469 C.ar      1            -0.1185
     19 C15        15.7753   15.9486   64.8388 C.ar      1            -0.1268
     20 C16        16.3482   16.1280   63.5925 C.ar      1            -0.1192
     21 C17        17.6312   15.6825   63.3492 C.ar      1            -0.1149
     22 H1         29.8858   13.5326   64.3666 H         1             0.0589
     23 H2         28.5552   12.8553   65.3356 H         1             0.0556
     24 H3         28.8584   12.2457   63.6911 H         1             0.0556
     25 H4         27.9393   15.0683   64.4018 H         1             0.0673
     26 H5         28.2424   14.4586   62.7572 H         1             0.0673
     27 H6         26.4876   12.7352   63.0727 H         1             0.0730
     28 H7         26.1846   13.3449   64.7173 H         1             0.0730
     29 H8         25.5685   15.5578   63.7834 H         1             0.0763
     30 H9         25.8716   14.9481   62.1389 H         1             0.0764
     31 H10        24.0550   13.1801   62.9680 H         1             0.4160
     32 H11        24.1930   16.7422   62.7059 H         1             0.1600
     33 H12        21.2837   19.1106   63.0487 H         1             0.0895
     34 H13        22.9834   19.0559   63.5744 H         1             0.0856
     35 H14        22.5728   18.8000   61.8614 H         1             0.0832
     36 H15        19.5567   12.3800   64.4683 H         1             0.1982
     37 H16        18.3139   14.3690   66.4018 H         1             0.1182
     38 H17        16.0291   15.1797   66.8178 H         1             0.1202
     39 H18        14.7723   16.3028   65.0254 H         1             0.1190
     40 H19        15.7916   16.6216   62.8095 H         1             0.1207
     41 H20        18.0792   15.8275   62.3772 H         1             0.1194
@<TRIPOS>BOND
     1    1    2 1 
     2    1   22 1 
     3    1   23 1 
     4    1   24 1 
     5    2    3 1 
     6    2   25 1 
     7    2   26 1 
     8    3    4 1 
     9    3   27 1 
    10    3   28 1 
    11    4    5 1 
    12    4   29 1 
    13    4   30 1 
    14    5    6 1 
    15    5   31 1 
    16    6   15 1 
    17    6    7 2 
    18    7    8 1 
    19    7   32 1 
    20    8    9 1 
    21    8   10 2 
    22    9   33 1 
    23    9   34 1 
    24    9   35 1 
    25   10   11 1 
    26   11   15 1 
    27   11   12 2 
    28   12   13 1 
    29   12   16 1 
    30   13   14 2 
    31   13   36 1 
    32   14   15 1 
    33   16   21 ar
    34   16   17 ar
    35   17   18 ar
    36   17   37 1 
    37   18   19 ar
    38   18   38 1 
    39   19   20 ar
    40   19   39 1 
    41   20   21 ar
    42   20   40 1 
    43   21   41 1 
##########                 Name:            E16326099
##########          Protonation:                  100
##########               SMILES:   Cc1cccc(c1)OCC(=O)n2c3cc(ccc3oc2=O)C
##########            Long Name:   5-methyl-3-[2-(3-methylphenoxy)acetyl]-1,3-benzoxazol-2-one
##########          FlexRecCode: 1
##########               Number:                  332
##########   Ligand Source File: /raidb/db2/rgc/leads-emolecules-300/leads-emolecules-2h-0000346.db2.gz
##########           GlobalRank: 4207
##########                 Rank:                    1
##########               Setnum:                  218
##########             Matchnum:                  451
##########                Cloud:                    1
##########        Electrostatic:            -8.997456
##########        Van der Waals:           -30.612963
##########  Ligand Polar Desolv:             3.915826
########## Ligand Apolar Desolv:            -4.330930
##########      Internal Energy:             0.000000
##########      Receptor Energy: 0.0
########## Receptor Desolvation:             0.000000
########## Receptor Hydrophobic:             0.000000
##########         Total Energy: -40.03
##########        Ligand Charge:             0.000000
##########            Arbitrary:    +999.9990
##########     heavy atom count:   22
##########           pose count:    1
##########        Ligand Energy:             0.000000
# num electro vdwattr vdwrepu polsolv apolsol rdesolv rhydroe totalscore fullpol fullapo
#   1    1.89   -0.60    0.05   -0.17   -0.07    0.00    0.00       1.09   -0.51   -0.20
#   2    0.66   -0.88    0.06   -0.04   -0.13    0.00    0.00      -0.33   -0.13   -0.41
#   3    0.66   -0.82    0.06   -0.10   -0.13    0.00    0.00      -0.34   -0.34   -0.45
#   4    0.36   -1.02    0.10   -0.07   -0.17    0.00    0.00      -0.80   -0.20   -0.47
#   5   -0.13   -1.50    0.50   -0.01   -0.14    0.00    0.00      -1.29   -0.02   -0.35
#   6    0.30   -1.63    0.34    0.34   -0.08    0.00    0.00      -0.73    0.70   -0.17
#   7    1.48   -1.87    0.48   -1.45   -0.30    0.00    0.00      -1.66   -2.68   -0.55
#   8   -1.87   -1.99    0.33    1.47   -0.22    0.00    0.00      -2.28    2.39   -0.36
#   9   -1.33   -1.65    0.57    1.01    0.86    0.00    0.00      -0.53    2.22    1.89
#  10    4.34   -1.70    0.34   -1.43   -0.32    0.00    0.00       1.23   -2.97   -0.66
#  11   -6.85   -3.41    3.98    1.89   -0.11    0.00    0.00      -4.50    3.99   -0.24
#  12    0.45   -1.18    0.19   -0.12   -0.05    0.00    0.00      -0.71   -0.21   -0.08
#  13   -4.15   -1.78    0.29    1.18    0.28    0.00    0.00      -4.17    2.02    0.48
#  14    1.66   -2.29    0.64   -0.31   -0.19    0.00    0.00      -0.48   -0.49   -0.31
#  15   -1.93   -2.81    1.50    0.48   -0.27    0.00    0.00      -3.03    0.79   -0.45
#  16   -0.46   -2.77    1.25    0.08   -0.26    0.00    0.00      -2.16    0.12   -0.41
#  17   -1.14   -1.53    0.39   -0.05   -0.13    0.00    0.00      -2.46   -0.07   -0.20
#  18   -0.61   -3.69    1.21    0.11   -0.30    0.00    0.00      -3.28    0.17   -0.45
#  19   -0.20   -3.86    1.23    0.07   -0.32    0.00    0.00      -3.07    0.10   -0.47
#  20   -1.72   -2.48    0.47    0.41   -0.26    0.00    0.00      -3.59    0.65   -0.42
#  21   -0.10   -1.57    0.83   -0.01   -0.28    0.00    0.00      -1.14   -0.03   -0.72
#  22    0.47   -1.13    0.18    0.07   -0.17    0.00    0.00      -0.59    0.17   -0.43
#  23   -1.23   -0.16    0.02    0.06   -0.04    0.00    0.00      -1.35    0.45   -0.28
#  24   -1.75   -0.28    0.05    0.21   -0.08    0.00    0.00      -1.86    0.73   -0.28
#  25   -1.06   -0.18    0.01    0.03   -0.05    0.00    0.00      -1.25    0.20   -0.28
#  26   -1.02   -0.11    0.00    0.21   -0.03    0.00    0.00      -0.95    1.87   -0.28
#  27   -0.60   -0.17    0.01    0.26   -0.06    0.00    0.00      -0.56    1.23   -0.28
#  28    0.69   -0.55    0.26   -0.13   -0.11    0.00    0.00       0.16   -0.28   -0.25
#  29    0.72   -0.33    0.04   -0.10   -0.09    0.00    0.00       0.24   -0.28   -0.25
#  30    1.63   -0.56    0.16   -0.29   -0.14    0.00    0.00       0.80   -0.56   -0.28
#  31    0.63   -0.64    0.31    0.07   -0.15    0.00    0.00       0.21    0.12   -0.28
#  32    0.84   -0.42    0.07    0.10   -0.15    0.00    0.00       0.45    0.19   -0.28
#  33    0.62   -0.58    0.60    0.02   -0.12    0.00    0.00       0.54    0.04   -0.28
#  34   -0.07   -1.21    1.19    0.17   -0.18    0.00    0.00      -0.10    0.26   -0.28
#  35   -0.14   -1.39    0.94    0.16   -0.19    0.00    0.00      -0.62    0.24   -0.28
#  36    1.00   -0.54    0.20   -0.10   -0.11    0.00    0.00       0.45   -0.20   -0.22
#  37   -1.01   -0.21    0.02   -0.11   -0.06    0.00    0.00      -1.38   -0.47   -0.24
@<TRIPOS>MOLECULE
E16326099
   37    39     0     0     0
SMALL
USER_CHARGES


@<TRIPOS>ATOM
      1 C1         24.0013   19.0371   60.8541 C.3       1            -0.1171
      2 C2         23.8724   17.6698   61.4749 C.ar      1            -0.0665
      3 C3         24.9592   16.8133   61.4894 C.ar      1            -0.0903
      4 C4         24.8501   15.5584   62.0561 C.ar      1            -0.0759
      5 C5         23.6474   15.1540   62.6139 C.ar      1             0.0440
      6 O1         23.2499   14.0111   63.2253 O.3       1            -0.2229
      7 C6         21.9633   14.1280   63.5886 C.2       1             0.6484
      8 O2         21.3146   13.2730   64.1588 O.2       1            -0.4536
      9 N1         21.5019   15.3406   63.2231 N.am      1            -0.5167
     10 C7         20.2555   15.8132   63.4229 C.2       1             0.5455
     11 O3         20.0749   17.0026   63.5717 O.2       1            -0.4410
     12 C8         19.0865   14.8628   63.4616 C.3       1             0.0531
     13 O4         17.8818   15.5984   63.6844 O.3       1            -0.2959
     14 C9         17.1681   15.2904   64.7991 C.ar      1             0.1285
     15 C10        15.7885   15.4376   64.8036 C.ar      1            -0.1465
     16 C11        15.0652   15.1235   65.9376 C.ar      1            -0.0465
     17 C12        13.5667   15.2827   65.9430 C.3       1            -0.1171
     18 C13        15.7152   14.6625   67.0680 C.ar      1            -0.1541
     19 C14        17.0897   14.5154   67.0661 C.ar      1            -0.0741
     20 C15        17.8171   14.8229   65.9324 C.ar      1            -0.2139
     21 C16        22.5533   16.0180   62.5990 C.ar      1             0.0496
     22 C17        22.6711   17.2771   62.0331 C.ar      1            -0.0733
     23 H1         25.0126   19.1673   60.4689 H         1             0.0797
     24 H2         23.2861   19.1340   60.0372 H         1             0.0762
     25 H3         23.7983   19.7986   61.6070 H         1             0.0736
     26 H4         25.8969   17.1274   61.0552 H         1             0.1493
     27 H5         25.7008   14.8930   62.0645 H         1             0.1498
     28 H6         19.0181   14.3324   62.5117 H         1             0.1125
     29 H7         19.2285   14.1448   64.2692 H         1             0.1125
     30 H8         15.2806   15.7979   63.9212 H         1             0.1328
     31 H9         13.1736   14.9886   66.9162 H         1             0.0751
     32 H10        13.3112   16.3241   65.7475 H         1             0.0707
     33 H11        13.1314   14.6504   65.1692 H         1             0.0697
     34 H12        15.1478   14.4174   67.9537 H         1             0.1259
     35 H13        17.5949   14.1555   67.9503 H         1             0.1282
     36 H14        18.8905   14.7035   65.9301 H         1             0.1309
     37 H15        21.8252   17.9483   62.0250 H         1             0.1493
@<TRIPOS>BOND
     1    1    2 1 
     2    1   23 1 
     3    1   24 1 
     4    1   25 1 
     5    2   22 ar
     6    2    3 ar
     7    3    4 ar
     8    3   26 1 
     9    4    5 ar
    10    4   27 1 
    11    5   21 ar
    12    5    6 1 
    13    6    7 1 
    14    7    8 2 
    15    7    9 am
    16    9   10 am
    17    9   21 1 
    18   10   11 2 
    19   10   12 1 
    20   12   13 1 
    21   12   28 1 
    22   12   29 1 
    23   13   14 1 
    24   14   20 ar
    25   14   15 ar
    26   15   16 ar
    27   15   30 1 
    28   16   17 1 
    29   16   18 ar
    30   17   31 1 
    31   17   32 1 
    32   17   33 1 
    33   18   19 ar
    34   18   34 1 
    35   19   20 ar
    36   19   35 1 
    37   20   36 1 
    38   21   22 ar
    39   22   37 1 
##########                 Name:            E27420277
##########          Protonation:                  100
##########               SMILES:   Cc1ccsc1C(=O)NCc2nncn2c3ccccc3
##########            Long Name:   3-methyl-N-[(4-phenyl-1,2,4-triazol-3-yl)methyl]thiophene-2-carboxamide
##########          FlexRecCode: 1
##########               Number:                  486
##########   Ligand Source File: /raidb/db2/rgc/leads-emolecules-300/leads-emolecules-3-ba-0000017.db2.gz
##########           GlobalRank: 4207
##########                 Rank:                    1
##########               Setnum:                  169
##########             Matchnum:                 2200
##########                Cloud:                    1
##########        Electrostatic:           -12.213322
##########        Van der Waals:           -29.162573
##########  Ligand Polar Desolv:             5.820668
########## Ligand Apolar Desolv:            -4.478565
##########      Internal Energy:             0.000000
##########      Receptor Energy: 0.0
########## Receptor Desolvation:             0.000000
########## Receptor Hydrophobic:             0.000000
##########         Total Energy: -40.03
##########        Ligand Charge:             0.000000
##########            Arbitrary:    +999.9990
##########     heavy atom count:   21
##########           pose count:    1
##########        Ligand Energy:             0.000000
# num electro vdwattr vdwrepu polsolv apolsol rdesolv rhydroe totalscore fullpol fullapo
#   1   -0.23   -2.75    0.98    0.18   -0.13    0.00    0.00      -1.94    0.27   -0.19
#   2   -0.15   -3.00    0.81    0.07   -0.27    0.00    0.00      -2.55    0.10   -0.41
#   3   -3.70   -2.46    0.68    0.49   -0.21    0.00    0.00      -5.20    0.75   -0.32
#   4    2.50   -3.89    1.34    0.22   -0.51    0.00    0.00      -0.34    0.34   -0.79
#   5   -1.89   -2.83    0.84   -0.32   -0.17    0.00    0.00      -4.36   -0.48   -0.25
#   6   -0.83   -3.86    1.43   -0.03   -0.30    0.00    0.00      -3.60   -0.05   -0.46
#   7   10.22   -2.32    0.53   -1.45   -0.39    0.00    0.00       6.59   -2.43   -0.65
#   8  -14.87   -5.31    8.45    2.50    0.21    0.00    0.00      -9.02    4.22    0.36
#   9   -7.79   -2.45    1.02    0.75    1.10    0.00    0.00      -7.36    1.27    1.86
#  10    1.86   -1.40    0.35   -0.29   -0.22    0.00    0.00       0.30   -0.53   -0.41
#  11    0.83   -1.63    0.37   -0.29   -1.14    0.00    0.00      -1.86   -0.51   -2.01
#  12   -1.08   -1.89    0.27    1.27    0.72    0.00    0.00      -0.71    2.09    1.19
#  13   -1.12   -2.50    0.77    1.15    0.74    0.00    0.00      -0.96    1.97    1.27
#  14    0.40   -2.14    0.82   -0.06   -1.58    0.00    0.00      -2.57   -0.13   -3.18
#  15   -1.27   -1.59    0.34    0.13    0.39    0.00    0.00      -2.00    0.29    0.85
#  16    0.05   -1.45    0.26    0.03   -0.26    0.00    0.00      -1.38    0.07   -0.61
#  17    0.19   -1.88    0.38   -0.08   -0.19    0.00    0.00      -1.58   -0.17   -0.42
#  18    0.66   -1.91    0.32   -0.14   -0.20    0.00    0.00      -1.28   -0.33   -0.47
#  19    1.28   -1.66    0.32   -0.19   -0.21    0.00    0.00      -0.45   -0.44   -0.47
#  20    1.08   -1.56    0.36   -0.21   -0.22    0.00    0.00      -0.56   -0.45   -0.47
#  21    0.25   -1.72    0.55   -0.14   -0.20    0.00    0.00      -1.26   -0.33   -0.45
#  22    0.49   -0.56    0.14   -0.11   -0.15    0.00    0.00      -0.20   -0.21   -0.28
#  23    0.28   -1.53    1.44   -0.21   -0.14    0.00    0.00      -0.15   -0.31   -0.21
#  24   -0.49   -1.60    2.89   -0.02   -0.18    0.00    0.00       0.60   -0.03   -0.28
#  25    1.65   -0.77    0.65    0.79   -0.15    0.00    0.00       2.16    1.43   -0.28
#  26   -0.40   -1.61    2.76    0.19   -0.19    0.00    0.00       0.75    0.29   -0.28
#  27    3.14   -0.08    0.01   -0.06    0.22    0.00    0.00       3.24   -0.14    0.52
#  28    0.56   -0.91    1.00   -0.09   -0.13    0.00    0.00       0.44   -0.17   -0.26
#  29    1.48   -0.46    0.20   -0.15   -0.12    0.00    0.00       0.95   -0.36   -0.28
#  30    0.28   -0.54    0.33    0.49   -0.10    0.00    0.00       0.45    1.33   -0.28
#  31    0.04   -0.64    0.28    0.05   -0.09    0.00    0.00      -0.36    0.12   -0.22
#  32   -0.78   -0.66    0.27    0.27   -0.11    0.00    0.00      -1.01    0.69   -0.28
#  33   -2.52   -0.46    0.23    0.35   -0.09    0.00    0.00      -2.49    1.09   -0.28
#  34   -2.20   -0.31    0.03    0.46   -0.11    0.00    0.00      -2.13    1.18   -0.28
#  35   -0.12   -0.48    0.24    0.28   -0.12    0.00    0.00      -0.20    0.67   -0.28
@<TRIPOS>MOLECULE
E27420277
   35    37     0     0     0
SMALL
USER_CHARGES


@<TRIPOS>ATOM
      1 C1         17.5558   14.3463   67.0718 C.3       1            -0.1083
      2 C2         16.2484   14.8527   66.5192 C.2       1            -0.0228
      3 C3         16.1705   15.5264   65.3097 C.2       1            -0.2714
      4 S1         14.4242   15.8644   65.1907 S.3       1             0.1957
      5 C4         13.9173   15.1576   66.6280 C.2       1            -0.2113
      6 C5         15.0567   14.6713   67.1793 C.2       1            -0.1846
      7 C6         17.2443   15.8707   64.3733 C.2       1             0.6143
      8 O1         17.4626   17.0363   64.0996 O.2       1            -0.5151
      9 N1         17.9898   14.8964   63.8151 N.am      1            -0.7263
     10 C7         19.0630   15.2405   62.8792 C.3       1             0.2132
     11 C8         20.3786   14.7403   63.4176 C.2       1             0.1577
     12 N2         20.6072   13.5633   63.9334 N.2       1            -0.2614
     13 N3         21.8387   13.4739   64.2908 N.2       1            -0.2865
     14 C9         22.4613   14.5892   64.0221 C.2       1             0.1724
     15 N4         21.5534   15.4305   63.4516 N.pl3     1            -0.4239
     16 C10        21.7802   16.7378   62.9966 C.ar      1             0.1036
     17 C11        22.7525   17.5246   63.5986 C.ar      1            -0.1075
     18 C12        22.9739   18.8115   63.1481 C.ar      1            -0.0992
     19 C13        22.2278   19.3163   62.0990 C.ar      1            -0.1032
     20 C14        21.2586   18.5346   61.4975 C.ar      1            -0.1002
     21 C15        21.0367   17.2451   61.9399 C.ar      1            -0.1069
     22 H1         18.3634   14.6012   66.3856 H         1             0.0780
     23 H2         17.7436   14.8078   68.0413 H         1             0.0892
     24 H3         17.5061   13.2637   67.1882 H         1             0.0673
     25 H4         12.9130   15.1002   67.0211 H         1             0.1909
     26 H5         15.0287   14.1524   68.1261 H         1             0.1407
     27 H6         17.8159   13.9673   64.0333 H         1             0.4017
     28 H7         18.8655   14.7758   61.9132 H         1             0.0940
     29 H8         19.1074   16.3230   62.7594 H         1             0.1122
     30 H9         23.5027   14.8037   64.2119 H         1             0.2255
     31 H10        23.3350   17.1313   64.4185 H         1             0.1290
     32 H11        23.7302   19.4242   63.6161 H         1             0.1364
     33 H12        22.4022   20.3229   61.7490 H         1             0.1347
     34 H13        20.6774   18.9315   60.6782 H         1             0.1378
     35 H14        20.2827   16.6335   61.4668 H         1             0.1343
@<TRIPOS>BOND
     1    1    2 1 
     2    1   22 1 
     3    1   23 1 
     4    1   24 1 
     5    2    6 1 
     6    2    3 2 
     7    3    4 1 
     8    3    7 1 
     9    4    5 1 
    10    5    6 2 
    11    5   25 1 
    12    6   26 1 
    13    7    8 2 
    14    7    9 am
    15    9   10 1 
    16    9   27 1 
    17   10   11 1 
    18   10   28 1 
    19   10   29 1 
    20   11   15 1 
    21   11   12 2 
    22   12   13 1 
    23   13   14 2 
    24   14   15 1 
    25   14   30 1 
    26   15   16 1 
    27   16   21 ar
    28   16   17 ar
    29   17   18 ar
    30   17   31 1 
    31   18   19 ar
    32   18   32 1 
    33   19   20 ar
    34   19   33 1 
    35   20   21 ar
    36   20   34 1 
    37   21   35 1 
##########                 Name:            E11873373
##########          Protonation:                   80
##########               SMILES:   C[C@@H]1CCC[NH+](C1)CC(=O)NCc2ccc3c(c2)OCO3
##########            Long Name:   -(1,3-benzodioxol-5-ylmethyl)-2-[(3R)-3-methylpiperidin-1-ium-1-yl]acetamide
##########          FlexRecCode: 1
##########               Number:                  257
##########   Ligand Source File: /raidb/db2/rgc/leads-emolecules-300/leads-emolecules-3-ac-0000002.db2.gz
##########           GlobalRank: 4223
##########                 Rank:                    1
##########               Setnum:                    9
##########             Matchnum:                  682
##########                Cloud:                    1
##########        Electrostatic:           -23.554688
##########        Van der Waals:           -22.953989
##########  Ligand Polar Desolv:             8.192948
########## Ligand Apolar Desolv:            -1.701067
##########      Internal Energy:             0.000000
##########      Receptor Energy: 0.0
########## Receptor Desolvation:             0.000000
########## Receptor Hydrophobic:             0.000000
##########         Total Energy: -40.02
##########        Ligand Charge:             1.000000
##########            Arbitrary:    +999.9990
##########     heavy atom count:   21
##########           pose count:    1
##########        Ligand Energy:             0.000000
# num electro vdwattr vdwrepu polsolv apolsol rdesolv rhydroe totalscore fullpol fullapo
#   1    0.58   -0.69    0.09   -0.94   -0.05    0.00    0.00      -1.03   -3.19   -0.18
#   2    1.14   -0.85    0.22   -0.72   -0.05    0.00    0.00      -0.25   -2.43   -0.18
#   3    0.71   -0.31    0.01   -0.51   -0.04    0.00    0.00      -0.13   -2.84   -0.22
#   4    0.97   -0.38    0.03   -0.57   -0.05    0.00    0.00       0.00   -3.02   -0.25
#   5    0.23   -0.51    0.05    0.03   -0.09    0.00    0.00      -0.30    0.11   -0.36
#   6    8.75   -1.85    2.31   -3.40    0.06    0.00    0.00       5.87  -10.73    0.20
#   7  -17.50   -0.24    0.19    4.03    0.16    0.00    0.00     -13.36   13.10    0.52
#   8    0.75   -1.02    0.20   -0.04   -0.15    0.00    0.00      -0.26   -0.10   -0.39
#   9   -7.23   -1.34    0.21    4.89   -0.25    0.00    0.00      -3.72   12.21   -0.62
#  10    7.31   -3.79    4.27   -4.79    0.14    0.00    0.00       3.13  -11.64    0.33
#  11    6.35   -1.00    0.05   -6.47    0.95    0.00    0.00      -0.13  -15.95    2.33
#  12   -0.48   -1.20    0.19    1.42   -0.20    0.00    0.00      -0.26    3.19   -0.44
#  13   -0.03   -1.62    0.30   -0.45   -0.16    0.00    0.00      -1.95   -1.05   -0.37
#  14    0.08   -1.79    0.51   -0.39   -0.19    0.00    0.00      -1.78   -0.93   -0.45
#  15    0.08   -2.15    0.74   -0.57   -0.23    0.00    0.00      -2.13   -1.20   -0.47
#  16    0.11   -2.18    0.54   -0.13   -0.18    0.00    0.00      -1.85   -0.24   -0.33
#  17   -1.78   -3.51    1.71   -0.94    0.33    0.00    0.00      -4.19   -1.48    0.52
#  18    0.61   -2.11    0.55    0.87    0.01    0.00    0.00      -0.07    1.32    0.02
#  19   -1.36   -1.49    0.16   -1.08    0.32    0.00    0.00      -3.45   -1.77    0.52
#  20    0.13   -1.69    0.39   -0.14   -0.19    0.00    0.00      -1.50   -0.24   -0.33
#  21   -0.33   -1.70    0.42   -0.42   -0.20    0.00    0.00      -2.23   -0.94   -0.45
#  22    0.10   -0.92    0.29    0.14   -0.10    0.00    0.00      -0.50    0.45   -0.33
#  23   -0.02   -0.16    0.01    0.27   -0.05    0.00    0.00       0.06    1.52   -0.28
#  24   -0.30   -0.10    0.00    0.02   -0.03    0.00    0.00      -0.42    0.15   -0.28
#  25   -0.28   -0.49    0.18    0.44   -0.10    0.00    0.00      -0.24    1.30   -0.28
#  26   -1.33   -0.70    0.62    0.72   -0.09    0.00    0.00      -0.78    2.22   -0.28
#  27   -0.32   -0.07    0.00    0.13   -0.02    0.00    0.00      -0.28    1.74   -0.28
#  28   -0.18   -0.07    0.00    0.02   -0.02    0.00    0.00      -0.24    0.36   -0.28
#  29   -0.28   -0.06    0.00    0.07   -0.02    0.00    0.00      -0.29    1.29   -0.28
#  30   -0.65   -0.20    0.04    0.25   -0.05    0.00    0.00      -0.60    1.47   -0.28
#  31   -1.09   -0.14    0.01    0.71   -0.04    0.00    0.00      -0.56    4.69   -0.28
#  32   -1.76   -0.15    0.01    0.41   -0.03    0.00    0.00      -1.53    2.49   -0.20
#  33   -4.34   -0.43    0.13    2.98   -0.10    0.00    0.00      -1.76    8.45   -0.28
#  34   -4.14   -0.38    0.08    2.70   -0.10    0.00    0.00      -1.84    7.69   -0.28
#  35   -4.15   -0.01    0.00    1.95    0.10    0.00    0.00      -2.12   10.92    0.56
#  36   -0.34   -0.60    0.21    0.47   -0.11    0.00    0.00      -0.37    1.19   -0.28
#  37   -0.05   -0.65    0.44    0.71   -0.13    0.00    0.00       0.33    1.56   -0.28
#  38   -0.37   -0.35    0.09    0.91   -0.07    0.00    0.00       0.21    3.46   -0.28
#  39   -0.48   -0.49    0.19    0.58   -0.11    0.00    0.00      -0.32    1.48   -0.28
#  40    0.38   -0.79    0.40    0.87   -0.18    0.00    0.00       0.69    1.39   -0.28
#  41   -0.21   -1.14    1.20    0.78   -0.18    0.00    0.00       0.45    1.19   -0.28
#  42    1.26   -0.38    0.10    0.71   -0.09    0.00    0.00       1.61    2.13   -0.28
#  43   -2.62   -0.46    0.20    2.02   -0.09    0.00    0.00      -0.96    6.24   -0.28
#  44   -1.49   -0.12    0.00    0.65   -0.03    0.00    0.00      -0.99    5.34   -0.28
@<TRIPOS>MOLECULE
E11873373
   44    46     0     0     0
SMALL
USER_CHARGES


@<TRIPOS>ATOM
      1 C1         26.9012   17.1031   59.4811 C.3       1            -0.1515
      2 C2         26.3815   18.5393   59.3877 C.3       1            -0.1101
      3 C3         27.3039   19.4694   60.1811 C.3       1            -0.1358
      4 C4         26.7326   20.8899   60.1464 C.3       1            -0.1418
      5 C5         25.3071   20.8741   60.7026 C.3       1            -0.0183
      6 N1         24.4691   19.9879   59.8859 N.4       1            -0.3686
      7 H1         24.4944   20.2945   58.9249 H         1             0.4294
      8 C6         23.0855   20.0350   60.3772 C.3       1            -0.0322
      9 C7         23.0467   19.5811   61.8137 C.2       1             0.5003
     10 O1         23.1774   20.3890   62.7087 O.2       1            -0.5255
     11 N2         22.8666   18.2773   62.1038 N.am      1            -0.6995
     12 C8         22.8289   17.8361   63.5003 C.3       1             0.1666
     13 C9         22.6179   16.3448   63.5503 C.ar      1            -0.1205
     14 C10        23.7077   15.4940   63.5579 C.ar      1            -0.0842
     15 C11        23.5201   14.1248   63.6038 C.ar      1            -0.1021
     16 C12        22.2384   13.6036   63.6425 C.ar      1             0.0537
     17 O2         21.7685   12.3254   63.6909 O.3       1            -0.3032
     18 C13        20.3999   12.3774   63.2607 C.3       1             0.2122
     19 O3         20.0137   13.6952   63.6787 O.3       1            -0.3050
     20 C14        21.1400   14.4610   63.6348 C.ar      1             0.0332
     21 C15        21.3349   15.8308   63.5944 C.ar      1            -0.0809
     22 C16        24.9692   18.6106   59.9720 C.3       1            -0.0057
     23 H2         27.9072   17.0531   59.0647 H         1             0.0685
     24 H3         26.9243   16.7924   60.5256 H         1             0.0784
     25 H4         26.2422   16.4411   58.9196 H         1             0.0675
     26 H5         26.3597   18.8513   58.3435 H         1             0.0949
     27 H6         27.3662   19.1267   61.2138 H         1             0.0820
     28 H7         28.2979   19.4654   59.7338 H         1             0.0947
     29 H8         27.3536   21.5469   60.7552 H         1             0.1124
     30 H9         26.7181   21.2514   59.1182 H         1             0.0888
     31 H10        25.3227   20.5126   61.7308 H         1             0.1242
     32 H11        24.8974   21.8840   60.6796 H         1             0.1464
     33 H12        22.7102   21.0561   60.3086 H         1             0.1604
     34 H13        22.4621   19.3774   59.7713 H         1             0.1589
     35 H14        22.7621   17.6311   61.3879 H         1             0.4125
     36 H15        23.7721   18.0862   63.9860 H         1             0.0911
     37 H16        22.0100   18.3364   64.0173 H         1             0.0937
     38 H17        24.7081   15.8999   63.5275 H         1             0.1416
     39 H18        24.3731   13.4624   63.6092 H         1             0.1433
     40 H19        20.3271   12.2745   62.1780 H         1             0.1392
     41 H20        19.8032   11.6174   63.7652 H         1             0.0907
     42 H21        20.4853   16.4976   63.5931 H         1             0.1380
     43 H22        24.3099   17.9494   59.4096 H         1             0.1316
     44 H23        24.9920   18.2975   61.0159 H         1             0.1308
@<TRIPOS>BOND
     1    1    2 1 
     2    1   23 1 
     3    1   24 1 
     4    1   25 1 
     5    2   22 1 
     6    2    3 1 
     7    2   26 1 
     8    3    4 1 
     9    3   27 1 
    10    3   28 1 
    11    4    5 1 
    12    4   29 1 
    13    4   30 1 
    14    5    6 1 
    15    5   31 1 
    16    5   32 1 
    17    6    7 1 
    18    6    8 1 
    19    6   22 1 
    20    8    9 1 
    21    8   33 1 
    22    8   34 1 
    23    9   10 2 
    24    9   11 am
    25   11   12 1 
    26   11   35 1 
    27   12   13 1 
    28   12   36 1 
    29   12   37 1 
    30   13   21 ar
    31   13   14 ar
    32   14   15 ar
    33   14   38 1 
    34   15   16 ar
    35   15   39 1 
    36   16   20 ar
    37   16   17 1 
    38   17   18 1 
    39   18   19 1 
    40   18   40 1 
    41   18   41 1 
    42   19   20 1 
    43   20   21 ar
    44   21   42 1 
    45   22   43 1 
    46   22   44 1 
##########                 Name:            E43012523
##########          Protonation:                  100
##########               SMILES:   COc1ccc(cc1NC2CC[NH2+]CC2)[N+](=O)[O-]
##########            Long Name:   N-(2-methoxy-5-nitro-phenyl)piperidin-1-ium-4-amine
##########          FlexRecCode: 1
##########               Number:                  950
##########   Ligand Source File: /raidb/db2/rgc/leads-emolecules-300/leads-lt300-emolecules-1-0000047.db2.gz
##########           GlobalRank: 4223
##########                 Rank:                    1
##########               Setnum:                    8
##########             Matchnum:                 5870
##########                Cloud:                    1
##########        Electrostatic:           -32.504997
##########        Van der Waals:           -20.060558
##########  Ligand Polar Desolv:            14.390431
########## Ligand Apolar Desolv:            -1.848542
##########      Internal Energy:             0.000000
##########      Receptor Energy: 0.0
########## Receptor Desolvation:             0.000000
########## Receptor Hydrophobic:             0.000000
##########         Total Energy: -40.02
##########        Ligand Charge:             1.000000
##########            Arbitrary:    +999.9990
##########     heavy atom count:   18
##########           pose count:    1
##########        Ligand Energy:             0.000000
# num electro vdwattr vdwrepu polsolv apolsol rdesolv rhydroe totalscore fullpol fullapo
#   1   -0.07   -0.49    0.03    0.03    0.01    0.00    0.00      -0.50    0.09    0.03
#   2    1.20   -0.84    0.09   -1.17    0.26    0.00    0.00      -0.47   -3.96    0.87
#   3   -0.41   -1.29    0.18    0.46   -0.12    0.00    0.00      -1.17    1.22   -0.31
#   4    0.55   -1.99    0.61   -0.76   -0.19    0.00    0.00      -1.78   -1.72   -0.42
#   5    0.02   -2.23    0.67   -0.40   -0.23    0.00    0.00      -2.17   -0.78   -0.45
#   6   -0.06   -1.74    0.59   -0.28   -0.33    0.00    0.00      -1.82   -0.59   -0.70
#   7    0.06   -1.41    0.29   -0.54   -0.16    0.00    0.00      -1.76   -1.31   -0.39
#   8   -0.68   -1.23    0.15    1.11   -0.26    0.00    0.00      -0.91    3.01   -0.71
#   9    5.20   -1.17    0.16   -4.61    0.51    0.00    0.00       0.09  -13.43    1.48
#  10   -1.54   -0.62    0.03    1.05   -0.09    0.00    0.00      -1.17    2.70   -0.22
#  11    2.68   -0.91    0.16   -1.72   -0.09    0.00    0.00       0.12   -4.44   -0.24
#  12    0.13   -1.45    0.39    0.35   -0.23    0.00    0.00      -0.81    0.72   -0.47
#  13   15.35   -2.89    2.98   -7.41    0.39    0.00    0.00       8.41  -17.22    0.90
#  14  -15.93   -0.12    0.03    6.29    0.20    0.00    0.00      -9.52   17.43    0.56
#  15  -15.40   -0.18    0.07    8.75    0.27    0.00    0.00      -6.49   18.78    0.57
#  16    0.05   -1.23    0.42    0.29   -0.18    0.00    0.00      -0.65    0.77   -0.47
#  17    2.16   -0.75    0.09   -1.41   -0.08    0.00    0.00       0.01   -4.18   -0.24
#  18    0.17   -1.60    0.27    0.09    0.24    0.00    0.00      -0.83    0.15    0.42
#  19   -1.23   -1.35    0.13   -0.11   -0.33    0.00    0.00      -2.89   -0.21   -0.63
#  20   -0.65   -1.63    0.19   -0.32   -0.39    0.00    0.00      -2.80   -0.52   -0.63
#  21   -0.12   -0.09    0.00    0.09   -0.02    0.00    0.00      -0.15    0.95   -0.26
#  22   -0.16   -0.23    0.03    0.28   -0.07    0.00    0.00      -0.16    1.01   -0.26
#  23   -0.56   -0.14    0.01    0.34   -0.05    0.00    0.00      -0.40    2.00   -0.28
#  24   -0.90   -0.55    0.42    0.77   -0.08    0.00    0.00      -0.34    2.15   -0.22
#  25    0.32   -0.64    0.22    0.34   -0.13    0.00    0.00       0.11    0.69   -0.27
#  26    0.09   -0.25    0.02    0.85   -0.05    0.00    0.00       0.67    3.12   -0.19
#  27   -3.42   -0.03    0.00    1.72    0.11    0.00    0.00      -1.61    7.93    0.53
#  28   -0.84   -0.24    0.02    0.53   -0.06    0.00    0.00      -0.59    1.96   -0.22
#  29   -1.62   -0.30    0.06    0.79   -0.08    0.00    0.00      -1.16    2.75   -0.28
#  30   -1.28   -0.46    0.31    0.30   -0.08    0.00    0.00      -1.21    1.00   -0.26
#  31   -4.25   -1.02    1.20    2.71   -0.14    0.00    0.00      -1.51    5.36   -0.28
#  32   -2.72   -0.31    0.03    1.71   -0.11    0.00    0.00      -1.40    4.48   -0.28
#  33   -2.96   -0.34    0.10    1.69   -0.08    0.00    0.00      -1.59    6.09   -0.28
#  34   -3.25   -0.71    0.83    1.65   -0.10    0.00    0.00      -1.58    4.61   -0.28
#  35   -1.17   -0.43    0.13    0.52   -0.08    0.00    0.00      -1.03    1.88   -0.28
#  36   -1.24   -0.13    0.01    0.42   -0.04    0.00    0.00      -0.98    3.28   -0.28
@<TRIPOS>MOLECULE
E43012523
   36    37     0     0     0
SMALL
USER_CHARGES


@<TRIPOS>ATOM
      1 C1         26.5640   15.5390   61.3943 C.3       1             0.0219
      2 O1         26.0863   15.6335   62.7379 O.3       1            -0.3116
      3 C2         24.7716   15.3547   62.9468 C.ar      1             0.1226
      4 C3         24.3741   14.0602   63.2373 C.ar      1            -0.1653
      5 C4         23.0370   13.7782   63.4494 C.ar      1            -0.0518
      6 C5         22.0934   14.7859   63.3725 C.ar      1            -0.0405
      7 C6         22.4820   16.0805   63.0832 C.ar      1            -0.1119
      8 C7         23.8223   16.3718   62.8749 C.ar      1             0.1835
      9 N1         24.2189   17.6829   62.5874 N.pl3     1            -0.7331
     10 C8         23.3063   18.5865   61.8825 C.3       1             0.1405
     11 C9         22.9672   18.0019   60.5082 C.3       1            -0.1714
     12 C10        22.0782   18.9871   59.7463 C.3       1            -0.0054
     13 N2         22.7870   20.2611   59.5763 N.4       1            -0.5064
     14 H1         23.6612   20.0974   59.0999 H         1             0.4288
     15 H2         22.2194   20.8904   59.0288 H         1             0.4353
     16 C11        23.0520   20.8625   60.8889 C.3       1            -0.0022
     17 C12        23.9785   19.9495   61.6947 C.3       1            -0.1564
     18 N3         20.6639   14.4776   63.6002 N.pl3     1             0.0362
     19 O2         19.8376   15.3575   63.5332 O.2       1            -0.1482
     20 O3         20.3225   13.3457   63.8530 O.3       1            -0.1664
     21 H3         27.6253   15.7859   61.3679 H         1             0.0656
     22 H4         26.4182   14.5229   61.0275 H         1             0.0653
     23 H5         26.0129   16.2358   60.7629 H         1             0.1115
     24 H6         25.1085   13.2706   63.2976 H         1             0.1573
     25 H7         22.7289   12.7681   63.6754 H         1             0.1593
     26 H8         21.7429   16.8658   63.0238 H         1             0.1536
     27 H9         25.0980   17.9934   62.8550 H         1             0.4158
     28 H10        22.3922   18.7077   62.4638 H         1             0.0980
     29 H11        23.8866   17.8328   59.9477 H         1             0.0949
     30 H12        22.4384   17.0573   60.6348 H         1             0.1146
     31 H13        21.8347   18.5740   58.7674 H         1             0.1384
     32 H14        21.1590   19.1553   60.3073 H         1             0.1354
     33 H15        23.5275   21.8338   60.7536 H         1             0.1400
     34 H16        22.1121   20.9907   61.4258 H         1             0.1355
     35 H17        24.1727   20.3969   62.6696 H         1             0.1205
     36 H18        24.9189   19.8208   61.1588 H         1             0.0959
@<TRIPOS>BOND
     1    1    2 1 
     2    1   21 1 
     3    1   22 1 
     4    1   23 1 
     5    2    3 1 
     6    3    8 ar
     7    3    4 ar
     8    4    5 ar
     9    4   24 1 
    10    5    6 ar
    11    5   25 1 
    12    6    7 ar
    13    6   18 1 
    14    7    8 ar
    15    7   26 1 
    16    8    9 1 
    17    9   10 1 
    18    9   27 1 
    19   10   17 1 
    20   10   11 1 
    21   10   28 1 
    22   11   12 1 
    23   11   29 1 
    24   11   30 1 
    25   12   13 1 
    26   12   31 1 
    27   12   32 1 
    28   13   14 1 
    29   13   15 1 
    30   13   16 1 
    31   16   17 1 
    32   16   33 1 
    33   16   34 1 
    34   17   35 1 
    35   17   36 1 
    36   18   19 2 
    37   18   20 1 
##########                 Name:              E848283
##########          Protonation:                  100
##########               SMILES:   c1ccc(cc1)Cn2cc(c(n2)c3ccccc3)C=O
##########            Long Name:   1-benzyl-3-phenyl-pyrazole-4-carbaldehyde
##########          FlexRecCode: 1
##########               Number:                  398
##########   Ligand Source File: /raidb/db2/rgc/leads-emolecules-300/leads-lt300-emolecules-1c-0000099.db2.gz
##########           GlobalRank: 4241
##########                 Rank:                    1
##########               Setnum:                   22
##########             Matchnum:                 5149
##########                Cloud:                    1
##########        Electrostatic:            -7.958864
##########        Van der Waals:           -31.728209
##########  Ligand Polar Desolv:             4.785769
########## Ligand Apolar Desolv:            -5.113369
##########      Internal Energy:             0.000000
##########      Receptor Energy: 0.0
########## Receptor Desolvation:             0.000000
########## Receptor Hydrophobic:             0.000000
##########         Total Energy: -40.01
##########        Ligand Charge:             0.000000
##########            Arbitrary:    +999.9990
##########     heavy atom count:   20
##########           pose count:    1
##########        Ligand Energy:             0.000000
# num electro vdwattr vdwrepu polsolv apolsol rdesolv rhydroe totalscore fullpol fullapo
#   1   -0.30   -3.86    1.71    2.16    0.29    0.00    0.00      -0.01    3.22    0.43
#   2    0.97   -3.30    1.78   -0.65   -0.14    0.00    0.00      -1.35   -1.04   -0.23
#   3   -2.11   -1.73    0.25    0.59   -0.26    0.00    0.00      -3.26    0.99   -0.44
#   4    0.61   -1.63    0.37   -0.06   -0.53    0.00    0.00      -1.24   -0.11   -0.96
#   5   -2.23   -1.72    0.36    0.18    0.50    0.00    0.00      -2.92    0.39    1.09
#   6    0.00   -0.95    0.14    0.14   -0.21    0.00    0.00      -0.89    0.31   -0.49
#   7    0.63   -1.67    0.57    0.02   -0.17    0.00    0.00      -0.62    0.04   -0.37
#   8    1.17   -2.22    0.81    0.00   -0.21    0.00    0.00      -0.44    0.01   -0.46
#   9    2.35   -2.78    1.39    0.03   -0.23    0.00    0.00       0.76    0.06   -0.47
#  10    2.13   -2.53    0.72    0.06   -0.29    0.00    0.00       0.10    0.10   -0.47
#  11    1.87   -2.70    0.85    0.12   -0.28    0.00    0.00      -0.14    0.20   -0.47
#  12    0.57   -2.23    0.79    0.08   -0.23    0.00    0.00      -1.02    0.16   -0.46
#  13   -4.71   -3.16    2.74    0.68    0.58    0.00    0.00      -3.86    1.34    1.14
#  14    1.91   -1.83    0.29   -0.31   -0.44    0.00    0.00      -0.38   -0.54   -0.77
#  15   -0.29   -2.14    0.44    0.09   -0.25    0.00    0.00      -2.15    0.14   -0.40
#  16   -1.51   -2.88    0.87    0.03   -0.24    0.00    0.00      -3.74    0.05   -0.41
#  17   -1.56   -2.95    1.18   -0.08   -0.28    0.00    0.00      -3.69   -0.14   -0.47
#  18   -1.24   -2.52    1.03   -0.08   -0.30    0.00    0.00      -3.11   -0.13   -0.47
#  19   -0.91   -2.95    0.87    0.02   -0.30    0.00    0.00      -3.27    0.03   -0.47
#  20   -0.75   -2.53    0.53    0.17   -0.29    0.00    0.00      -2.86    0.27   -0.45
#  21    0.19   -1.41    3.53    0.06   -0.12    0.00    0.00       2.25    0.11   -0.21
#  22    0.41   -0.33    0.09    0.23   -0.10    0.00    0.00       0.30    0.63   -0.28
#  23    0.04   -0.41    0.11    0.12   -0.10    0.00    0.00      -0.25    0.32   -0.28
#  24   -0.32   -0.23    0.04    0.21   -0.06    0.00    0.00      -0.36    0.96   -0.27
#  25   -1.27   -0.55    0.19    0.13   -0.11    0.00    0.00      -1.60    0.34   -0.28
#  26   -3.13   -0.95    1.10    0.10   -0.13    0.00    0.00      -3.01    0.22   -0.28
#  27   -2.93   -0.82    0.63    0.09   -0.18    0.00    0.00      -3.21    0.15   -0.28
#  28   -2.03   -1.04    0.94    0.01   -0.17    0.00    0.00      -2.29    0.02   -0.28
#  29   -0.38   -0.69    0.58   -0.07   -0.13    0.00    0.00      -0.69   -0.15   -0.28
#  30    1.67   -0.76    0.30    0.10   -0.13    0.00    0.00       1.19    0.17   -0.22
#  31    1.00   -0.84    0.72    0.35   -0.15    0.00    0.00       1.09    0.66   -0.28
#  32    1.29   -0.38    0.05    0.29   -0.14    0.00    0.00       1.12    0.60   -0.28
#  33    0.27   -0.73    0.19    0.17   -0.17    0.00    0.00      -0.28    0.28   -0.28
#  34    0.63   -0.55    0.10   -0.20   -0.16    0.00    0.00      -0.19   -0.35   -0.28
@<TRIPOS>MOLECULE
E848283
   34    36     0     0     0
SMALL
USER_CHARGES


@<TRIPOS>ATOM
      1 O1         20.1314   12.0128   64.0700 O.2       1            -0.4786
      2 C1         19.3127   12.8851   64.2731 C.2       1             0.4130
      3 C2         19.6575   14.2864   64.0211 C.2       1            -0.3362
      4 C3         20.8641   14.7723   63.5487 C.2       1             0.1355
      5 N1         20.7633   16.1058   63.4608 N.pl3     1            -0.3535
      6 C4         21.8264   17.0029   63.0011 C.3       1             0.1690
      7 C5         21.2518   18.0125   62.0412 C.ar      1            -0.1171
      8 C6         21.5972   19.3464   62.1523 C.ar      1            -0.0991
      9 C7         21.0701   20.2726   61.2718 C.ar      1            -0.1234
     10 C8         20.1969   19.8645   60.2803 C.ar      1            -0.1058
     11 C9         19.8534   18.5307   60.1680 C.ar      1            -0.1226
     12 C10        20.3839   17.6038   61.0458 C.ar      1            -0.0809
     13 N2         19.4915   16.5120   63.8738 N.2       1            -0.2710
     14 C11        18.7902   15.4551   64.2133 C.2       1             0.1562
     15 C12        17.3903   15.4445   64.7015 C.ar      1            -0.0213
     16 C13        16.3654   15.9425   63.8984 C.ar      1            -0.0978
     17 C14        15.0642   15.9296   64.3579 C.ar      1            -0.1179
     18 C15        14.7760   15.4242   65.6129 C.ar      1            -0.1071
     19 C16        15.7889   14.9287   66.4142 C.ar      1            -0.1194
     20 C17        17.0932   14.9312   65.9630 C.ar      1            -0.0865
     21 H1         18.3284   12.6279   64.6354 H         1             0.1033
     22 H2         21.7326   14.1821   63.2962 H         1             0.1897
     23 H3         22.2601   17.5208   63.8566 H         1             0.1006
     24 H4         22.5995   16.4221   62.4978 H         1             0.1111
     25 H5         22.2785   19.6650   62.9274 H         1             0.1215
     26 H6         21.3394   21.3148   61.3591 H         1             0.1252
     27 H7         19.7857   20.5883   59.5921 H         1             0.1249
     28 H8         19.1718   18.2121   59.3932 H         1             0.1258
     29 H9         20.1175   16.5611   60.9563 H         1             0.1247
     30 H10        16.5894   16.3379   62.9187 H         1             0.1273
     31 H11        14.2694   16.3150   63.7366 H         1             0.1296
     32 H12        13.7564   15.4167   65.9687 H         1             0.1263
     33 H13        15.5581   14.5354   67.3932 H         1             0.1276
     34 H14        17.8825   14.5400   66.5876 H         1             0.1269
@<TRIPOS>BOND
     1    1    2 2 
     2    2    3 1 
     3    2   21 1 
     4    3   14 1 
     5    3    4 2 
     6    4    5 1 
     7    4   22 1 
     8    5    6 1 
     9    5   13 1 
    10    6    7 1 
    11    6   23 1 
    12    6   24 1 
    13    7   12 ar
    14    7    8 ar
    15    8    9 ar
    16    8   25 1 
    17    9   10 ar
    18    9   26 1 
    19   10   11 ar
    20   10   27 1 
    21   11   12 ar
    22   11   28 1 
    23   12   29 1 
    24   13   14 2 
    25   14   15 1 
    26   15   20 ar
    27   15   16 ar
    28   16   17 ar
    29   16   30 1 
    30   17   18 ar
    31   17   31 1 
    32   18   19 ar
    33   18   32 1 
    34   19   20 ar
    35   19   33 1 
    36   20   34 1 
##########                 Name:            E29587321
##########          Protonation:                   80
##########               SMILES:   C[NH+](C)[C@H](CNC(=O)c1c(nccn1)N)c2cccs2
##########            Long Name:   -2-[(3-aminopyrazine-2-carbonyl)amino]-1-(2-thienyl)ethyl]-dimethyl-ammonium
##########          FlexRecCode: 1
##########               Number:                  430
##########   Ligand Source File: /raidb/db2/rgc/leads-emolecules-300/leads-emolecules-2e-0000198.db2.gz
##########           GlobalRank: 4264
##########                 Rank:                    1
##########               Setnum:                    1
##########             Matchnum:                 6743
##########                Cloud:                    1
##########        Electrostatic:           -15.603492
##########        Van der Waals:           -29.667755
##########  Ligand Polar Desolv:             6.969889
########## Ligand Apolar Desolv:            -1.699134
##########      Internal Energy:             0.000000
##########      Receptor Energy: 0.0
########## Receptor Desolvation:             0.000000
########## Receptor Hydrophobic:             0.000000
##########         Total Energy: -40.0
##########        Ligand Charge:             1.000000
##########            Arbitrary:    +999.9990
##########     heavy atom count:   20
##########           pose count:    1
##########        Ligand Energy:             0.000000
# num electro vdwattr vdwrepu polsolv apolsol rdesolv rhydroe totalscore fullpol fullapo
#   1    1.03   -1.41    0.50   -0.68   -0.19    0.00    0.00      -0.74   -1.64   -0.47
#   2    4.66   -0.77    0.06   -4.10    0.12    0.00    0.00      -0.03  -11.16    0.33
#   3   -3.49   -0.02    0.00    2.55    0.10    0.00    0.00      -0.86   13.76    0.53
#   4    0.56   -0.50    0.03   -0.57   -0.13    0.00    0.00      -0.60   -2.05   -0.46
#   5   -1.50   -0.80    0.07    1.78   -0.07    0.00    0.00      -0.53    4.12   -0.17
#   6   -0.48   -1.47    0.33    0.86   -0.17    0.00    0.00      -0.92    1.86   -0.37
#   7   -0.96   -1.97    0.59   -5.49    1.01    0.00    0.00      -6.82  -12.09    2.22
#   8    0.27   -1.56    0.28    2.87   -0.28    0.00    0.00       1.57    6.73   -0.66
#   9    1.09   -1.39    0.21   -2.12    0.13    0.00    0.00      -2.09   -5.38    0.33
#  10   -0.17   -1.69    0.42   -0.36   -0.36    0.00    0.00      -2.15   -0.75   -0.74
#  11    0.47   -2.20    0.61    1.13   -1.12    0.00    0.00      -1.12    2.13   -2.12
#  12    1.85   -2.37    0.82   -2.65    0.41    0.00    0.00      -1.94   -5.60    0.87
#  13   -2.42   -3.80    1.71   -2.02    1.27    0.00    0.00      -5.26   -3.27    2.05
#  14    0.54   -3.10    0.83    0.75   -0.64    0.00    0.00      -1.62    1.14   -0.97
#  15   -0.06   -1.92    0.31   -0.07   -0.59    0.00    0.00      -2.34   -0.12   -0.97
#  16   -2.04   -1.56    0.24   -2.18    1.03    0.00    0.00      -4.51   -3.92    1.85
#  17    3.84   -1.66    0.35   -1.94   -0.09    0.00    0.00       0.49   -3.91   -0.18
#  18    1.45   -2.50    0.79   -1.37   -0.26    0.00    0.00      -1.89   -2.42   -0.46
#  19    3.03   -2.88    0.73   -1.84   -0.31    0.00    0.00      -1.26   -2.82   -0.47
#  20    1.53   -3.87    2.24   -1.90   -0.17    0.00    0.00      -2.17   -2.95   -0.26
#  21   -0.39   -4.25    3.06    0.47   -0.41    0.00    0.00      -1.53    0.91   -0.79
#  22   -3.76   -0.57    0.44    1.77   -0.10    0.00    0.00      -2.23    5.08   -0.28
#  23   -2.31   -0.70    0.70    0.87   -0.09    0.00    0.00      -1.53    2.23   -0.22
#  24   -2.67   -0.51    0.19    2.05   -0.12    0.00    0.00      -1.07    4.79   -0.28
#  25   -1.07   -0.27    0.09    0.77   -0.04    0.00    0.00      -0.53    4.01   -0.22
#  26   -1.17   -0.12    0.00    0.63   -0.03    0.00    0.00      -0.69    5.18   -0.28
#  27   -1.54   -0.12    0.00    0.60   -0.03    0.00    0.00      -1.09    5.03   -0.28
#  28   -2.54   -0.29    0.06    1.74   -0.07    0.00    0.00      -1.10    7.06   -0.28
#  29   -0.40   -0.52    0.11    0.75   -0.12    0.00    0.00      -0.18    1.78   -0.28
#  30   -0.44   -0.92    0.55    1.94   -0.11    0.00    0.00       1.02    3.90   -0.22
#  31    3.23   -0.04    0.00    2.77    0.17    0.00    0.00       6.13    8.06    0.50
#  32   -0.82   -0.02    0.00    0.95    0.12    0.00    0.00       0.23    3.15    0.41
#  33   -2.19   -0.06    0.00    1.21    0.25    0.00    0.00      -0.79    2.90    0.59
#  34   -0.06   -1.19    1.03    1.86   -0.18    0.00    0.00       1.45    2.86   -0.28
#  35    0.94   -0.53    0.30    1.67   -0.13    0.00    0.00       2.26    3.64   -0.28
#  36   -4.07   -0.71    0.49    1.54   -0.12    0.00    0.00      -2.87    3.61   -0.28
#  37   -2.53   -0.65    0.17    1.13   -0.19    0.00    0.00      -2.07    1.64   -0.28
#  38   -2.99   -1.54    2.47    1.62   -0.18    0.00    0.00      -0.62    2.46   -0.28
@<TRIPOS>MOLECULE
E29587321
   38    39     0     0     0
SMALL
USER_CHARGES


@<TRIPOS>ATOM
      1 C1         23.1732   18.1164   59.7749 C.3       1            -0.0502
      2 N1         23.3956   18.0347   61.2248 N.4       1            -0.3836
      3 H1         23.1461   17.1133   61.5519 H         1             0.4264
      4 C2         24.8118   18.2918   61.5182 C.3       1            -0.0550
      5 C3         22.5648   19.0373   61.9048 C.3       1             0.1218
      6 C4         22.3991   18.6496   63.3756 C.3       1             0.1022
      7 N2         21.7529   17.3379   63.4651 N.am      1            -0.7095
      8 C5         22.5021   16.2178   63.4879 C.2       1             0.6016
      9 O1         23.7141   16.2959   63.4342 O.2       1            -0.5296
     10 C6         21.8504   14.8949   63.5781 C.ar      1            -0.0665
     11 C7         22.6280   13.7256   63.6078 C.ar      1             0.4173
     12 N3         24.0074   13.8068   63.5534 N.pl3     1            -0.8169
     13 N4         22.0318   12.5417   63.6890 N.ar      1            -0.4996
     14 C8         20.7143   12.4686   63.7412 C.ar      1             0.1515
     15 C9         19.9466   13.6241   63.7112 C.ar      1            -0.0136
     16 N5         20.5248   14.8056   63.6369 N.ar      1            -0.3780
     17 C10        21.2108   19.0985   61.2458 C.2       1            -0.2633
     18 C11        20.6023   20.1482   60.6417 C.2       1            -0.0703
     19 C12        19.3436   19.9713   60.0986 C.2       1            -0.1706
     20 C13        18.7551   18.7535   60.1862 C.2       1            -0.1107
     21 S1         19.9957   17.8052   61.0514 S.3       1             0.0585
     22 H2         23.4427   19.1117   59.4216 H         1             0.1315
     23 H3         23.7896   17.3724   59.2703 H         1             0.1244
     24 H4         22.1223   17.9257   59.5573 H         1             0.1266
     25 H5         24.9768   18.2311   62.5938 H         1             0.1283
     26 H6         25.4283   17.5478   61.0136 H         1             0.1337
     27 H7         25.0812   19.2871   61.1648 H         1             0.1282
     28 H8         23.0457   20.0133   61.8383 H         1             0.1596
     29 H9         23.3784   18.6055   63.8521 H         1             0.0961
     30 H10        21.7826   19.3935   63.8803 H         1             0.0983
     31 H11        20.7859   17.2756   63.5079 H         1             0.4171
     32 H12        24.4403   14.6727   63.4946 H         1             0.4242
     33 H13        24.5419   12.9976   63.5741 H         1             0.4092
     34 H14        20.2319   11.5046   63.8071 H         1             0.1822
     35 H15        18.8697   13.5548   63.7536 H         1             0.1791
     36 H16        21.0933   21.1085   60.5859 H         1             0.1457
     37 H17        18.8364   20.7914   59.6120 H         1             0.1528
     38 H18        17.7882   18.4376   59.8231 H         1             0.2009
@<TRIPOS>BOND
     1    1    2 1 
     2    1   22 1 
     3    1   23 1 
     4    1   24 1 
     5    2    3 1 
     6    2    4 1 
     7    2    5 1 
     8    4   25 1 
     9    4   26 1 
    10    4   27 1 
    11    5    6 1 
    12    5   17 1 
    13    5   28 1 
    14    6    7 1 
    15    6   29 1 
    16    6   30 1 
    17    7    8 am
    18    7   31 1 
    19    8    9 2 
    20    8   10 1 
    21   10   16 ar
    22   10   11 ar
    23   11   12 1 
    24   11   13 ar
    25   12   32 1 
    26   12   33 1 
    27   13   14 ar
    28   14   15 ar
    29   14   34 1 
    30   15   16 ar
    31   15   35 1 
    32   17   21 1 
    33   17   18 2 
    34   18   19 1 
    35   18   36 1 
    36   19   20 2 
    37   19   37 1 
    38   20   21 1 
    39   20   38 1 
##########                 Name:            E44497679
##########          Protonation:                   73
##########               SMILES:   c1cc(cc(c1)Cn2cncn2)C[NH2+]Cc3ccco3
##########            Long Name:   2-furylmethyl-[[3-(1,2,4-triazol-1-ylmethyl)phenyl]methyl]ammonium
##########          FlexRecCode: 1
##########               Number:                  385
##########   Ligand Source File: /raidb/db2/rgc/leads-emolecules-300/leads-emolecules-3-ci-0000003.db2.gz
##########           GlobalRank: 4264
##########                 Rank:                    1
##########               Setnum:                  229
##########             Matchnum:                 1532
##########                Cloud:                    1
##########        Electrostatic:           -25.822605
##########        Van der Waals:           -22.931162
##########  Ligand Polar Desolv:            12.532334
########## Ligand Apolar Desolv:            -3.779575
##########      Internal Energy:             0.000000
##########      Receptor Energy: 0.0
########## Receptor Desolvation:             0.000000
########## Receptor Hydrophobic:             0.000000
##########         Total Energy: -40.0
##########        Ligand Charge:             1.000000
##########            Arbitrary:    +999.9990
##########     heavy atom count:   20
##########           pose count:    1
##########        Ligand Energy:             0.000000
# num electro vdwattr vdwrepu polsolv apolsol rdesolv rhydroe totalscore fullpol fullapo
#   1   -1.93   -1.04    0.61    1.14   -0.14    0.00    0.00      -1.36    3.77   -0.45
#   2   14.63   -2.31    1.97   -6.67    0.30    0.00    0.00       7.93  -16.65    0.74
#   3  -11.31   -0.03    0.00    5.12    0.19    0.00    0.00      -6.02   14.97    0.57
#   4  -16.90   -0.15    0.04    6.48    0.25    0.00    0.00     -10.28   14.95    0.57
#   5   -1.11   -1.21    0.25    1.03   -0.19    0.00    0.00      -1.24    2.27   -0.42
#   6    2.24   -1.04    0.06   -1.27   -0.16    0.00    0.00      -0.16   -3.03   -0.37
#   7    0.45   -1.18    0.25   -0.57   -0.17    0.00    0.00      -1.22   -1.50   -0.44
#   8    0.28   -1.26    0.13   -1.00   -0.15    0.00    0.00      -2.00   -2.44   -0.37
#   9   -0.12   -1.01    0.18    0.99   -0.21    0.00    0.00      -0.17    2.31   -0.50
#  10   -0.79   -1.70    0.45   -2.09    0.56    0.00    0.00      -3.57   -4.25    1.13
#  11    0.85   -2.21    0.47    1.36   -1.91    0.00    0.00      -1.45    2.30   -3.23
#  12   -1.96   -2.15    0.31   -2.43    1.43    0.00    0.00      -4.80   -3.87    2.27
#  13    1.14   -1.76    0.31    0.74   -1.99    0.00    0.00      -1.57    1.25   -3.37
#  14   -1.64   -1.62    0.41   -1.68    0.68    0.00    0.00      -3.86   -3.31    1.33
#  15    0.06   -2.75    1.08   -0.89   -0.22    0.00    0.00      -2.72   -1.87   -0.46
#  16    0.58   -3.44    1.45   -1.40   -0.23    0.00    0.00      -3.04   -2.88   -0.47
#  17    0.98   -2.08    0.66   -0.75   -0.20    0.00    0.00      -1.40   -1.77   -0.46
#  18    1.62   -1.15    0.45   -0.35   -0.08    0.00    0.00       0.49   -1.36   -0.31
#  19    0.75   -0.54    0.03   -0.71   -0.09    0.00    0.00      -0.55   -3.79   -0.51
#  20    0.55   -0.53    0.02   -0.83   -0.11    0.00    0.00      -0.89   -4.00   -0.51
#  21   -0.09   -0.70    0.04   -0.21   -0.07    0.00    0.00      -1.04   -0.79   -0.27
#  22    1.82   -1.01    0.18   -1.03    0.08    0.00    0.00       0.04   -3.44    0.25
#  23   -2.16   -0.14    0.01    0.98   -0.04    0.00    0.00      -1.34    7.45   -0.28
#  24   -3.37   -0.52    0.57    1.47   -0.06    0.00    0.00      -1.91    6.33   -0.28
#  25   -3.55   -0.47    0.14    2.72   -0.11    0.00    0.00      -1.27    6.68   -0.28
#  26   -3.50   -0.53    0.19    2.80   -0.12    0.00    0.00      -1.16    6.69   -0.28
#  27   -1.18   -0.51    0.49    1.10   -0.08    0.00    0.00      -0.17    4.01   -0.28
#  28   -0.39   -0.25    0.04    0.62   -0.07    0.00    0.00      -0.04    2.38   -0.28
#  29    0.13   -0.63    0.46    0.73   -0.10    0.00    0.00       0.59    2.07   -0.28
#  30    0.74   -0.66    0.24    1.93   -0.15    0.00    0.00       2.10    3.72   -0.28
#  31    1.61   -0.43    0.13    1.07   -0.12    0.00    0.00       2.26    2.57   -0.28
#  32    0.34   -1.23    1.40    0.64   -0.15    0.00    0.00       1.01    1.24   -0.28
#  33   -0.57   -1.68    1.69    0.92   -0.16    0.00    0.00       0.20    1.60   -0.28
#  34   -2.60   -0.92    1.48    1.72   -0.10    0.00    0.00      -0.43    4.63   -0.28
#  35   -0.58   -0.07    0.00    0.26   -0.02    0.00    0.00      -0.41    4.11   -0.28
#  36   -0.02   -0.10    0.00    0.14   -0.03    0.00    0.00       0.00    1.53   -0.28
#  37   -0.85   -0.14    0.01    0.45   -0.04    0.00    0.00      -0.57    3.32   -0.28
@<TRIPOS>MOLECULE
E44497679
   37    39     0     0     0
SMALL
USER_CHARGES


@<TRIPOS>ATOM
      1 C1         24.6406   20.0598   60.1153 C.3       1             0.0940
      2 N1         23.2355   20.2733   59.7430 N.4       1            -0.5117
      3 H1         22.8379   20.9922   60.3287 H         1             0.4303
      4 H2         23.1834   20.5596   58.7768 H         1             0.4296
      5 C2         22.4856   19.0233   59.9244 C.3       1             0.0469
      6 C3         22.5636   18.5958   61.3675 C.ar      1            -0.1689
      7 C4         22.8312   17.2768   61.6842 C.ar      1            -0.0569
      8 C5         22.9026   16.8848   63.0075 C.ar      1            -0.1039
      9 C6         23.1939   15.4469   63.3528 C.3       1             0.1668
     10 N2         21.9350   14.7049   63.4558 N.pl3     1            -0.3842
     11 C7         21.7898   13.4019   63.7531 C.2       1             0.2638
     12 N3         20.5113   13.1241   63.7472 N.2       1            -0.5395
     13 C8         19.8122   14.2192   63.4517 C.2       1             0.2076
     14 N4         20.6396   15.2147   63.2699 N.2       1            -0.3290
     15 C9         22.7075   17.8116   64.0147 C.ar      1            -0.0634
     16 C10        22.4405   19.1302   63.6981 C.ar      1            -0.1149
     17 C11        22.3732   19.5234   62.3743 C.ar      1            -0.0801
     18 C12        25.4099   21.3422   59.9290 C.2       1            -0.1196
     19 C13        26.7227   21.5136   60.1673 C.2       1            -0.1342
     20 C14        27.0220   22.8611   59.8609 C.2       1            -0.2206
     21 C15        25.8744   23.4323   59.4537 C.2       1             0.0182
     22 O1         24.9024   22.5061   59.4916 O.3       1            -0.1689
     23 H3         24.6969   19.7506   61.1590 H         1             0.1577
     24 H4         25.0701   19.2832   59.4826 H         1             0.1471
     25 H5         21.4431   19.1815   59.6483 H         1             0.1416
     26 H6         22.9152   18.2467   59.2918 H         1             0.1412
     27 H7         22.9840   16.5530   60.8974 H         1             0.1346
     28 H8         23.8138   15.0044   62.5730 H         1             0.1182
     29 H9         23.7214   15.4018   64.3056 H         1             0.1029
     30 H10        22.5892   12.7057   63.9601 H         1             0.2220
     31 H11        18.7362   14.2761   63.3785 H         1             0.2179
     32 H12        22.7634   17.5051   65.0488 H         1             0.1360
     33 H13        22.2877   19.8542   64.4848 H         1             0.1398
     34 H14        22.1685   20.5544   62.1269 H         1             0.1348
     35 H15        27.4149   20.7657   60.5247 H         1             0.1618
     36 H16        27.9870   23.3397   59.9392 H         1             0.1642
     37 H17        25.7554   24.4603   59.1450 H         1             0.2191
@<TRIPOS>BOND
     1    1    2 1 
     2    1   18 1 
     3    1   23 1 
     4    1   24 1 
     5    2    3 1 
     6    2    4 1 
     7    2    5 1 
     8    5    6 1 
     9    5   25 1 
    10    5   26 1 
    11    6   17 ar
    12    6    7 ar
    13    7    8 ar
    14    7   27 1 
    15    8    9 1 
    16    8   15 ar
    17    9   10 1 
    18    9   28 1 
    19    9   29 1 
    20   10   14 1 
    21   10   11 1 
    22   11   12 2 
    23   11   30 1 
    24   12   13 1 
    25   13   14 2 
    26   13   31 1 
    27   15   16 ar
    28   15   32 1 
    29   16   17 ar
    30   16   33 1 
    31   17   34 1 
    32   18   22 1 
    33   18   19 2 
    34   19   20 1 
    35   19   35 1 
    36   20   21 2 
    37   20   36 1 
    38   21   22 1 
    39   21   37 1 
##########                 Name:            E33226016
##########          Protonation:                   65
##########               SMILES:   c1ccc(c(c1)NC(=O)/N=c/2\[nH]nc3n2cccc3)F
##########            Long Name:   (3Z)-1-(2-fluorophenyl)-3-(2H-[1,2,4]triazolo[4,3-a]pyridin-3-ylidene)urea
##########          FlexRecCode: 1
##########               Number:                  390
##########   Ligand Source File: /raidb/db2/rgc/leads-emolecules-300/leads-emolecules-lt300-1f-0000069.db2.gz
##########           GlobalRank: 4264
##########                 Rank:                    1
##########               Setnum:                   74
##########             Matchnum:                 4530
##########                Cloud:                    1
##########        Electrostatic:            -9.933662
##########        Van der Waals:           -32.031071
##########  Ligand Polar Desolv:             5.911207
########## Ligand Apolar Desolv:            -3.947033
##########      Internal Energy:             0.000000
##########      Receptor Energy: 0.0
########## Receptor Desolvation:             0.000000
########## Receptor Hydrophobic:             0.000000
##########         Total Energy: -40.0
##########        Ligand Charge:             0.000000
##########            Arbitrary:    +999.9990
##########     heavy atom count:   20
##########           pose count:    1
##########        Ligand Energy:             0.000000
# num electro vdwattr vdwrepu polsolv apolsol rdesolv rhydroe totalscore fullpol fullapo
#   1   -2.11   -2.19    0.99    0.50   -0.28    0.00    0.00      -3.09    0.81   -0.46
#   2    1.14   -2.92    1.07   -0.11   -0.20    0.00    0.00      -1.02   -0.19   -0.34
#   3   -1.78   -2.90    1.01    0.13   -0.30    0.00    0.00      -3.84    0.20   -0.47
#   4   -1.26   -2.23    0.40   -0.01   -0.31    0.00    0.00      -3.41   -0.01   -0.47
#   5   -0.98   -3.01    0.86    0.14   -0.31    0.00    0.00      -3.30    0.21   -0.47
#   6   -0.75   -3.02    0.89    0.46   -0.26    0.00    0.00      -2.68    0.70   -0.40
#   7    1.74   -2.39    0.56   -0.41   -0.44    0.00    0.00      -0.95   -0.62   -0.67
#   8   -7.83   -2.03    0.27    2.71    1.04    0.00    0.00      -5.84    4.35    1.66
#   9    7.92   -1.95    0.40   -3.40   -1.22    0.00    0.00       1.74   -5.81   -2.09
#  10   -6.22   -3.94    3.70    3.99    0.17    0.00    0.00      -2.31    6.76    0.29
#  11   -6.64   -1.67    0.23    2.43    1.79    0.00    0.00      -3.85    4.68    3.45
#  12    3.25   -1.61    0.28   -2.04   -2.72    0.00    0.00      -2.85   -3.62   -4.82
#  13   -2.01   -2.09    0.43    2.14    0.44    0.00    0.00      -1.09    3.48    0.72
#  14   -1.25   -2.96    0.87    1.22    0.79    0.00    0.00      -1.32    1.99    1.29
#  15    0.39   -2.16    0.63   -0.29   -1.13    0.00    0.00      -2.57   -0.55   -2.17
#  16    0.29   -2.31    0.86   -0.28   -0.22    0.00    0.00      -1.66   -0.60   -0.48
#  17    0.11   -1.41    0.22    0.00   -0.19    0.00    0.00      -1.26    0.01   -0.47
#  18    0.62   -1.21    0.15   -0.36   -0.17    0.00    0.00      -0.98   -0.98   -0.47
#  19   -0.11   -1.39    0.29    0.07   -0.38    0.00    0.00      -1.52    0.18   -0.93
#  20   -0.91   -1.64    0.39    0.40    0.43    0.00    0.00      -1.33    0.85    0.90
#  21    0.92   -1.06    1.37    0.12   -0.15    0.00    0.00       1.20    0.21   -0.28
#  22    1.38   -0.42    0.07    0.40   -0.15    0.00    0.00       1.27    0.73   -0.28
#  23    0.79   -1.03    0.91    0.08   -0.16    0.00    0.00       0.58    0.14   -0.28
#  24    0.29   -0.72    0.16   -0.59   -0.13    0.00    0.00      -0.98   -0.96   -0.21
#  25    4.23   -0.04    0.00   -1.04    0.29    0.00    0.00       3.45   -2.09    0.58
#  26    1.34   -0.04    0.00   -2.06    0.15    0.00    0.00      -0.61   -3.87    0.28
#  27   -0.74   -0.67    0.49    0.47   -0.12    0.00    0.00      -0.57    1.12   -0.28
#  28   -0.52   -0.19    0.01    0.59   -0.06    0.00    0.00      -0.17    2.78   -0.28
#  29   -1.03   -0.18    0.01    0.45   -0.05    0.00    0.00      -0.79    2.69   -0.28
#  30   -0.21   -0.23    0.02    0.21   -0.07    0.00    0.00      -0.28    0.83   -0.28
@<TRIPOS>MOLECULE
E33226016
   30    32     0     0     0
SMALL
USER_CHARGES


@<TRIPOS>ATOM
      1 F1         16.3051   16.5660   63.3155 F         1            -0.1372
      2 C1         15.7464   16.1307   64.4660 C.ar      1             0.0695
      3 C2         14.3938   16.3109   64.6909 C.ar      1            -0.1351
      4 C3         13.8223   15.8652   65.8684 C.ar      1            -0.1077
      5 C4         14.6000   15.2379   66.8242 C.ar      1            -0.1108
      6 C5         15.9519   15.0545   66.6065 C.ar      1            -0.0953
      7 C6         16.5295   15.4954   65.4236 C.ar      1             0.1300
      8 N1         17.8983   15.3061   65.1980 N.am      1            -0.6516
      9 C7         18.3592   15.1542   63.9407 C.2       1             0.6957
     10 O1         17.6502   14.6463   63.0886 O.2       1            -0.6243
     11 N2         19.5919   15.5598   63.6283 N.2       1            -0.6614
     12 C8         20.6207   14.7204   63.7497 C.2       1             0.6202
     13 N3         20.5586   13.4401   64.1679 N.pl3     1            -0.4780
     14 N4         21.8602   12.9220   64.1467 N.2       1            -0.2892
     15 C9         22.6714   13.8665   63.7284 C.2       1             0.2994
     16 C10        24.0734   13.8887   63.5201 C.2       1            -0.1218
     17 C11        24.6602   15.0258   63.0724 C.2       1            -0.0380
     18 C12        23.8742   16.1681   62.8201 C.2       1            -0.1705
     19 C13        22.5441   16.1410   63.0201 C.2       1             0.1245
     20 N5         21.9264   14.9997   63.4675 N.pl3     1            -0.4327
     21 H1         13.7836   16.8004   63.9463 H         1             0.1397
     22 H2         12.7659   16.0077   66.0420 H         1             0.1344
     23 H3         14.1500   14.8912   67.7427 H         1             0.1332
     24 H4         16.5581   14.5650   67.3543 H         1             0.1496
     25 H5         18.5147   15.2842   65.9466 H         1             0.4188
     26 H6         19.7572   12.9637   64.4358 H         1             0.4748
     27 H7         24.6680   13.0088   63.7164 H         1             0.1648
     28 H8         25.7274   15.0564   62.9098 H         1             0.1551
     29 H9         24.3438   17.0730   62.4635 H         1             0.1635
     30 H10        21.9557   17.0248   62.8223 H         1             0.1804
@<TRIPOS>BOND
     1    1    2 1 
     2    2    7 ar
     3    2    3 ar
     4    3    4 ar
     5    3   21 1 
     6    4    5 ar
     7    4   22 1 
     8    5    6 ar
     9    5   23 1 
    10    6    7 ar
    11    6   24 1 
    12    7    8 1 
    13    8    9 am
    14    8   25 1 
    15    9   10 2 
    16    9   11 1 
    17   11   12 2 
    18   12   20 1 
    19   12   13 1 
    20   13   14 1 
    21   13   26 1 
    22   14   15 2 
    23   15   20 1 
    24   15   16 1 
    25   16   17 2 
    26   16   27 1 
    27   17   18 1 
    28   17   28 1 
    29   18   19 2 
    30   18   29 1 
    31   19   20 1 
    32   19   30 1 
##########                 Name:            E30226137
##########          Protonation:                   73
##########               SMILES:   c1cc(ccc1OCCCSc2[nH+]c(cc(n2)N)N)F
##########            Long Name:   2-[3-(4-fluorophenoxy)propylsulfanyl]pyrimidin-1-ium-4,6-diamine
##########          FlexRecCode: 1
##########               Number:                  552
##########   Ligand Source File: /raidb/db2/rgc/leads-emolecules-300/leads-emolecules-2g-0000071.db2.gz
##########           GlobalRank: 4285
##########                 Rank:                    1
##########               Setnum:                  260
##########             Matchnum:                 2971
##########                Cloud:                    1
##########        Electrostatic:           -19.433010
##########        Van der Waals:           -21.556562
##########  Ligand Polar Desolv:             3.692735
########## Ligand Apolar Desolv:            -2.690340
##########      Internal Energy:             0.000000
##########      Receptor Energy: 0.0
########## Receptor Desolvation:             0.000000
########## Receptor Hydrophobic:             0.000000
##########         Total Energy: -39.99
##########        Ligand Charge:             1.000000
##########            Arbitrary:    +999.9990
##########     heavy atom count:   20
##########           pose count:    1
##########        Ligand Energy:             0.000000
# num electro vdwattr vdwrepu polsolv apolsol rdesolv rhydroe totalscore fullpol fullapo
#   1    1.22   -0.65    0.04   -3.82    0.21    0.00    0.00      -2.99  -16.81    0.92
#   2   -2.69   -0.66    0.04    2.34   -0.51    0.00    0.00      -1.47    9.84   -2.13
#   3    1.69   -0.77    0.04   -2.31   -0.13    0.00    0.00      -1.48   -7.80   -0.45
#   4   -5.26   -1.28    0.29    3.86   -0.67    0.00    0.00      -3.07   12.30   -2.13
#   5    8.27   -1.59    0.45   -7.24    0.32    0.00    0.00       0.22  -20.51    0.92
#   6   10.54   -2.01    0.82   -4.26    0.33    0.00    0.00       5.42  -13.00    1.00
#   7  -12.49   -0.06    0.00    4.15    0.19    0.00    0.00      -8.21   12.36    0.58
#   8   -6.38   -1.25    0.24    2.62   -0.62    0.00    0.00      -5.39    8.49   -2.02
#   9   -1.41   -2.86    1.66    0.48   -0.28    0.00    0.00      -2.41    1.34   -0.79
#  10    2.53   -1.07    0.22   -0.81   -0.04    0.00    0.00       0.83   -1.95   -0.10
#  11    1.93   -0.93    0.09   -0.83   -0.12    0.00    0.00       0.14   -1.71   -0.24
#  12   -0.52   -0.79    0.08    0.26   -0.04    0.00    0.00      -1.00    0.58   -0.09
#  13   -0.43   -1.58    0.58   -1.47    0.40    0.00    0.00      -2.51   -3.30    0.89
#  14    0.44   -1.67    0.53    0.42   -0.14    0.00    0.00      -0.42    0.96   -0.31
#  15   -1.04   -1.95    0.84   -0.83   -0.22    0.00    0.00      -3.19   -1.59   -0.42
#  16   -0.50   -1.83    0.35   -0.48   -0.28    0.00    0.00      -2.74   -0.80   -0.47
#  17    0.27   -2.13    0.47   -0.08   -0.20    0.00    0.00      -1.67   -0.13   -0.34
#  18   -0.76   -2.38    1.25   -0.14   -0.31    0.00    0.00      -2.33   -0.21   -0.48
#  19   -0.32   -2.36    1.14   -0.31   -0.24    0.00    0.00      -2.08   -0.61   -0.47
#  20   -0.22   -1.66    0.36   -0.42   -0.20    0.00    0.00      -2.13   -0.95   -0.46
#  21    5.47   -0.73    0.07   -2.86    0.46    0.00    0.00       2.42  -11.69    1.88
#  22   -0.41   -0.01    0.00    0.88    0.06    0.00    0.00       0.53    8.89    0.59
#  23   -0.14   -0.01    0.00    1.45    0.08    0.00    0.00       1.38   10.11    0.59
#  24   -0.63   -0.17    0.02    0.89   -0.05    0.00    0.00       0.06    5.26   -0.28
#  25   -2.73   -0.02    0.00    2.88    0.14    0.00    0.00       0.27   12.07    0.59
#  26   -6.83   -0.03    0.00    3.09    0.15    0.00    0.00      -3.62   12.05    0.60
#  27   -3.76   -0.78    0.75    1.03   -0.11    0.00    0.00      -2.87    2.58   -0.28
#  28   -2.66   -0.32    0.07    0.75   -0.08    0.00    0.00      -2.24    2.59   -0.28
#  29   -1.61   -0.34    0.05    0.47   -0.10    0.00    0.00      -1.53    1.34   -0.28
#  30   -1.80   -0.41    0.08    0.56   -0.12    0.00    0.00      -1.69    1.34   -0.28
#  31   -0.57   -0.22    0.04    0.30   -0.05    0.00    0.00      -0.50    1.55   -0.26
#  32   -0.50   -0.25    0.02    0.47   -0.08    0.00    0.00      -0.34    1.56   -0.27
#  33    0.99   -0.49    0.16    1.19   -0.10    0.00    0.00       1.76    2.75   -0.22
#  34    0.52   -0.47    0.13    0.72   -0.15    0.00    0.00       0.74    1.37   -0.28
#  35    0.40   -1.05    2.55    0.37   -0.12    0.00    0.00       2.15    0.83   -0.28
#  36   -0.04   -0.30    0.04    0.37   -0.09    0.00    0.00      -0.01    1.22   -0.28
@<TRIPOS>MOLECULE
E30226137
   36    37     0     0     0
SMALL
USER_CHARGES


@<TRIPOS>ATOM
      1 N1         27.4912   22.7016   59.2757 N.pl3     1            -0.7857
      2 C1         26.1620   22.8188   59.6514 C.ar      1             0.5187
      3 C2         25.4452   23.9752   59.3567 C.ar      1            -0.3342
      4 C3         24.1133   24.0482   59.7534 C.ar      1             0.5064
      5 N2         23.3605   25.1799   59.4811 N.pl3     1            -0.8100
      6 N3         23.5714   23.0170   60.3975 N.ar      1            -0.5637
      7 H1         22.6437   23.0606   60.6771 H         1             0.4444
      8 C4         24.2841   21.9314   60.6607 C.ar      1             0.4045
      9 S1         23.5227   20.5916   61.5153 S.3       1             0.0803
     10 C5         22.8369   19.5593   60.1906 C.3       1            -0.1073
     11 C6         21.5877   18.8382   60.7010 C.3       1            -0.1130
     12 C7         21.9600   17.9559   61.8942 C.3       1             0.0668
     13 O1         20.7932   17.2824   62.3708 O.3       1            -0.3099
     14 C8         20.9753   16.0635   62.9447 C.ar      1             0.1158
     15 C9         19.9791   15.1019   62.8627 C.ar      1            -0.1805
     16 C10        20.1654   13.8636   63.4463 C.ar      1            -0.1136
     17 C11        21.3457   13.5826   64.1133 C.ar      1             0.0674
     18 F1         21.5265   12.3715   64.6840 F         1            -0.1363
     19 C12        22.3411   14.5414   64.1956 C.ar      1            -0.1110
     20 C13        22.1597   15.7785   63.6079 C.ar      1            -0.1183
     21 N4         25.5529   21.8250   60.2936 N.ar      1            -0.5561
     22 H2         27.9830   21.8907   59.4789 H         1             0.4260
     23 H3         27.9284   23.4292   58.8060 H         1             0.4317
     24 H4         25.9117   24.7964   58.8330 H         1             0.1813
     25 H5         23.7616   25.9277   59.0111 H         1             0.4420
     26 H6         22.4327   25.2241   59.7605 H         1             0.4240
     27 H7         22.5717   20.1879   59.3405 H         1             0.1168
     28 H8         23.5798   18.8243   59.8812 H         1             0.1166
     29 H9         20.8447   19.5733   61.0102 H         1             0.0944
     30 H10        21.1756   18.2179   59.9050 H         1             0.0944
     31 H11        22.7029   17.2209   61.5849 H         1             0.0708
     32 H12        22.3720   18.5763   62.6902 H         1             0.0708
     33 H13        19.0581   15.3211   62.3430 H         1             0.1360
     34 H14        19.3899   13.1147   63.3826 H         1             0.1403
     35 H15        23.2614   14.3207   64.7159 H         1             0.1466
     36 H16        22.9380   16.5248   63.6687 H         1             0.1437
@<TRIPOS>BOND
     1    1    2 1 
     2    1   22 1 
     3    1   23 1 
     4    2   21 ar
     5    2    3 ar
     6    3    4 ar
     7    3   24 1 
     8    4    5 1 
     9    4    6 ar
    10    5   25 1 
    11    5   26 1 
    12    6    7 1 
    13    6    8 ar
    14    8    9 1 
    15    8   21 ar
    16    9   10 1 
    17   10   11 1 
    18   10   27 1 
    19   10   28 1 
    20   11   12 1 
    21   11   29 1 
    22   11   30 1 
    23   12   13 1 
    24   12   31 1 
    25   12   32 1 
    26   13   14 1 
    27   14   20 ar
    28   14   15 ar
    29   15   16 ar
    30   15   33 1 
    31   16   17 ar
    32   16   34 1 
    33   17   18 1 
    34   17   19 ar
    35   19   20 ar
    36   19   35 1 
    37   20   36 1 
##########                 Name:            E18853360
##########          Protonation:                   98
##########               SMILES:   C[NH+](CCCNC(=O)c1ccsc1)Cc2ccccc2
##########            Long Name:   benzyl-methyl-[3-(thiophene-3-carbonylamino)propyl]ammonium
##########          FlexRecCode: 1
##########               Number:                  148
##########   Ligand Source File: /raidb/db2/rgc/leads-emolecules-300/leads-emolecules-3-al-0000010.db2.gz
##########           GlobalRank: 4285
##########                 Rank:                    1
##########               Setnum:                  124
##########             Matchnum:                 2906
##########                Cloud:                    1
##########        Electrostatic:           -22.387949
##########        Van der Waals:           -21.341080
##########  Ligand Polar Desolv:             6.564452
########## Ligand Apolar Desolv:            -2.826564
##########      Internal Energy:             0.000000
##########      Receptor Energy: 0.0
########## Receptor Desolvation:             0.000000
########## Receptor Hydrophobic:             0.000000
##########         Total Energy: -39.99
##########        Ligand Charge:             1.000000
##########            Arbitrary:    +999.9990
##########     heavy atom count:   20
##########           pose count:    1
##########        Ligand Energy:             0.000000
# num electro vdwattr vdwrepu polsolv apolsol rdesolv rhydroe totalscore fullpol fullapo
#   1    1.03   -1.06    0.32   -0.72   -0.14    0.00    0.00      -0.57   -2.24   -0.44
#   2    7.39   -1.05    0.34   -3.62    0.10    0.00    0.00       3.16  -11.81    0.33
#   3  -11.72   -0.05    0.00    4.01    0.14    0.00    0.00      -7.61   15.67    0.55
#   4    0.11   -0.90    0.19    0.15   -0.13    0.00    0.00      -0.59    0.40   -0.35
#   5    2.02   -0.60    0.03   -1.56   -0.08    0.00    0.00      -0.20   -4.12   -0.22
#   6   -0.79   -0.95    0.10    0.85   -0.18    0.00    0.00      -0.97    1.99   -0.42
#   7    1.26   -1.27    0.14   -4.67    0.98    0.00    0.00      -3.57  -11.05    2.31
#   8    2.71   -1.76    0.44    1.97   -0.29    0.00    0.00       3.08    4.43   -0.65
#   9   -7.72   -3.83    5.10   -0.65    0.19    0.00    0.00      -6.90   -1.38    0.41
#  10   -0.82   -1.63    0.40   -1.09   -0.21    0.00    0.00      -3.35   -2.07   -0.41
#  11   -0.51   -1.88    0.44   -1.13   -0.13    0.00    0.00      -3.21   -2.13   -0.24
#  12    0.97   -5.17    2.10    1.59   -0.51    0.00    0.00      -1.02    2.50   -0.80
#  13   -0.65   -2.56    0.68   -1.08   -0.16    0.00    0.00      -3.78   -1.71   -0.26
#  14   -0.64   -1.75    0.30   -0.54   -0.27    0.00    0.00      -2.90   -0.92   -0.46
#  15   -0.45   -0.41    0.03    0.42   -0.08    0.00    0.00      -0.49    1.89   -0.36
#  16    1.45   -0.89    0.22   -0.61   -0.07    0.00    0.00       0.09   -2.74   -0.33
#  17    0.69   -1.11    0.24   -0.56   -0.12    0.00    0.00      -0.87   -2.01   -0.45
#  18    0.14   -1.69    0.49   -0.87   -0.16    0.00    0.00      -2.09   -2.61   -0.47
#  19   -0.03   -2.49    1.63   -0.73   -0.16    0.00    0.00      -1.78   -2.13   -0.47
#  20   -0.14   -2.16    2.06   -0.80   -0.14    0.00    0.00      -1.19   -2.61   -0.47
#  21    0.34   -0.95    0.20   -0.47   -0.09    0.00    0.00      -0.97   -1.93   -0.36
#  22   -1.54   -0.19    0.02    0.93   -0.04    0.00    0.00      -0.83    4.71   -0.22
#  23   -1.51   -0.36    0.20    1.13   -0.07    0.00    0.00      -0.61    4.61   -0.28
#  24   -3.28   -0.76    0.68    1.06   -0.08    0.00    0.00      -2.38    2.88   -0.21
#  25   -1.69   -0.46    0.22    1.38   -0.07    0.00    0.00      -0.62    5.30   -0.28
#  26   -2.99   -0.41    0.17    1.57   -0.09    0.00    0.00      -1.75    5.03   -0.28
#  27   -1.50   -0.19    0.01    0.88   -0.05    0.00    0.00      -0.85    3.84   -0.21
#  28   -0.94   -0.14    0.01    0.48   -0.04    0.00    0.00      -0.63    3.82   -0.28
#  29   -0.36   -0.47    0.08    0.38   -0.12    0.00    0.00      -0.49    0.89   -0.28
#  30   -0.58   -0.39    0.12    0.31   -0.09    0.00    0.00      -0.64    0.92   -0.28
#  31   -1.25   -0.02    0.00    1.94    0.10    0.00    0.00       0.78    8.87    0.46
#  32    0.11   -0.35    0.08    1.83   -0.08    0.00    0.00       1.58    5.17   -0.24
#  33    0.24   -1.06    1.60    1.14   -0.17    0.00    0.00       1.75    1.91   -0.28
#  34    1.37   -0.35    0.05    0.03   -0.11    0.00    0.00       1.00    0.08   -0.28
#  35   -0.75   -0.09    0.00    0.52   -0.03    0.00    0.00      -0.35    5.49   -0.28
#  36   -1.14   -0.11    0.01    0.67   -0.03    0.00    0.00      -0.60    5.80   -0.27
#  37   -1.02   -0.16    0.01    0.77   -0.05    0.00    0.00      -0.45    4.37   -0.28
#  38   -0.05   -0.37    0.10    0.43   -0.09    0.00    0.00       0.02    1.42   -0.28
#  39    0.03   -0.83    0.82    0.27   -0.09    0.00    0.00       0.19    0.79   -0.28
#  40    0.22   -0.62    0.68    0.41   -0.08    0.00    0.00       0.60    1.49   -0.28
#  41   -0.40   -0.11    0.01    0.54   -0.03    0.00    0.00       0.00    4.41   -0.28
@<TRIPOS>MOLECULE
E18853360
   41    42     0     0     0
SMALL
USER_CHARGES


@<TRIPOS>ATOM
      1 C1         24.2483   21.9108   59.9125 C.3       1            -0.0576
      2 N1         24.4593   20.5291   60.3652 N.4       1            -0.3838
      3 H1         24.2826   19.8943   59.6010 H         1             0.4244
      4 C2         23.5407   20.2309   61.4720 C.3       1            -0.0063
      5 C3         23.3898   18.7152   61.6154 C.3       1            -0.1630
      6 C4         22.4331   18.4046   62.7682 C.3       1             0.1251
      7 N2         22.2886   16.9533   62.9053 N.am      1            -0.7352
      8 C5         21.1366   16.4318   63.3718 C.2       1             0.5804
      9 O1         20.2170   17.1663   63.6789 O.2       1            -0.5281
     10 C6         20.9914   14.9736   63.5097 C.2       1            -0.1907
     11 C7         22.0810   14.1570   63.7134 C.2       1            -0.2201
     12 S1         21.4277   12.6144   63.8060 S.3       1             0.2104
     13 C8         19.7034   12.9924   63.5803 C.2       1            -0.2035
     14 C9         19.6999   14.3336   63.4438 C.2       1            -0.1083
     15 C10        25.8460   20.3704   60.8232 C.3       1             0.0446
     16 C11        26.7507   20.1874   59.6320 C.ar      1            -0.1633
     17 C12        27.0045   18.9188   59.1450 C.ar      1            -0.0940
     18 C13        27.8344   18.7510   58.0524 C.ar      1            -0.1132
     19 C14        28.4101   19.8520   57.4462 C.ar      1            -0.0832
     20 C15        28.1555   21.1207   57.9324 C.ar      1            -0.1139
     21 C16        27.3223   21.2888   59.0225 C.ar      1            -0.0964
     22 H2         24.4391   22.5966   60.7378 H         1             0.1240
     23 H3         24.9299   22.1320   59.0911 H         1             0.1241
     24 H4         23.2194   22.0285   59.5726 H         1             0.1255
     25 H5         23.9404   20.6454   62.3976 H         1             0.1364
     26 H6         22.5670   20.6752   61.2658 H         1             0.1359
     27 H7         22.9901   18.3008   60.6898 H         1             0.0953
     28 H8         24.3636   18.2710   61.8215 H         1             0.0947
     29 H9         22.8329   18.8190   63.6937 H         1             0.0796
     30 H10        21.4593   18.8489   62.5620 H         1             0.0795
     31 H11        23.0219   16.3676   62.6603 H         1             0.4007
     32 H12        23.1191   14.4439   63.7944 H         1             0.1861
     33 H13        18.8639   12.3133   63.5610 H         1             0.1949
     34 H14        18.7887   14.8930   63.2914 H         1             0.1530
     35 H15        26.1497   21.2585   61.3771 H         1             0.1367
     36 H16        25.9168   19.4964   61.4708 H         1             0.1376
     37 H17        26.5547   18.0587   59.6186 H         1             0.1313
     38 H18        28.0333   17.7599   57.6724 H         1             0.1365
     39 H19        29.0591   19.7209   56.5929 H         1             0.1363
     40 H20        28.6056   21.9808   57.4591 H         1             0.1365
     41 H21        27.1204   22.2802   59.4003 H         1             0.1312
@<TRIPOS>BOND
     1    1    2 1 
     2    1   22 1 
     3    1   23 1 
     4    1   24 1 
     5    2    3 1 
     6    2    4 1 
     7    2   15 1 
     8    4    5 1 
     9    4   25 1 
    10    4   26 1 
    11    5    6 1 
    12    5   27 1 
    13    5   28 1 
    14    6    7 1 
    15    6   29 1 
    16    6   30 1 
    17    7    8 am
    18    7   31 1 
    19    8    9 2 
    20    8   10 1 
    21   10   14 1 
    22   10   11 2 
    23   11   12 1 
    24   11   32 1 
    25   12   13 1 
    26   13   14 2 
    27   13   33 1 
    28   14   34 1 
    29   15   16 1 
    30   15   35 1 
    31   15   36 1 
    32   16   21 ar
    33   16   17 ar
    34   17   18 ar
    35   17   37 1 
    36   18   19 ar
    37   18   38 1 
    38   19   20 ar
    39   19   39 1 
    40   20   21 ar
    41   20   40 1 
    42   21   41 1 
##########                 Name:            E48317719
##########          Protonation:                   20
##########               SMILES:   c1cn(c[nH+]1)CCCCNc2c(cc(cn2)[N+](=O)[O-])Cl
##########            Long Name:   3-chloro-N-(4-imidazol-3-ium-1-ylbutyl)-5-nitro-pyridin-2-amine
##########          FlexRecCode: 1
##########               Number:                   49
##########   Ligand Source File: /raidb/db2/rgc/leads-emolecules-300/leads-emolecules-2h-0000037.db2.gz
##########           GlobalRank: 4312
##########                 Rank:                    1
##########               Setnum:                   90
##########             Matchnum:                  840
##########                Cloud:                    1
##########        Electrostatic:           -21.471199
##########        Van der Waals:           -23.513412
##########  Ligand Polar Desolv:             8.431201
########## Ligand Apolar Desolv:            -3.425959
##########      Internal Energy:             0.000000
##########      Receptor Energy: 0.0
########## Receptor Desolvation:             0.000000
########## Receptor Hydrophobic:             0.000000
##########         Total Energy: -39.98
##########        Ligand Charge:             1.000000
##########            Arbitrary:    +999.9990
##########     heavy atom count:   20
##########           pose count:    1
##########        Ligand Energy:             0.000000
# num electro vdwattr vdwrepu polsolv apolsol rdesolv rhydroe totalscore fullpol fullapo
#   1    0.06   -4.00    2.39   -0.05   -0.35    0.00    0.00      -1.95   -0.14   -0.94
#   2    0.12   -1.87    0.59   -0.62   -0.12    0.00    0.00      -1.90   -1.47   -0.29
#   3   -0.54   -1.70    0.33    2.06   -0.86    0.00    0.00      -0.71    4.90   -2.05
#   4    3.40   -2.33    0.78   -4.00    0.69    0.00    0.00      -1.46   -9.81    1.69
#   5   -0.77   -1.90    0.61    0.83   -0.19    0.00    0.00      -1.42    1.87   -0.42
#   6    1.24   -1.59    0.63   -0.98   -0.08    0.00    0.00      -0.78   -2.77   -0.22
#   7    1.89   -0.56    0.03   -0.95   -0.07    0.00    0.00       0.34   -3.13   -0.24
#   8   -1.24   -0.56    0.08    0.74   -0.12    0.00    0.00      -1.09    2.93   -0.46
#   9    5.62   -1.00    0.11   -3.49    0.34    0.00    0.00       1.58  -12.12    1.17
#  10   -0.15   -0.70    0.04   -0.10   -0.25    0.00    0.00      -1.16   -0.40   -0.98
#  11   -0.04   -0.99    0.11   -0.17   -0.31    0.00    0.00      -1.40   -0.57   -1.02
#  12   10.10   -2.76    2.26   -4.72    0.39    0.00    0.00       5.26  -14.02    1.15
#  13  -13.99   -0.09    0.02    5.00    0.20    0.00    0.00      -8.87   14.83    0.59
#  14   -6.70   -2.52    1.52    3.34   -1.14    0.00    0.00      -5.50    9.41   -3.21
#  15   -1.17   -1.85    0.48   -2.24    0.84    0.00    0.00      -3.93   -4.97    1.87
#  16    1.24   -1.71    0.42    0.95   -0.43    0.00    0.00       0.48    2.09   -0.94
#  17   -0.48   -1.73    0.41   -0.56   -0.38    0.00    0.00      -2.73   -1.03   -0.70
#  18    0.02   -1.97    0.57    0.07   -0.22    0.00    0.00      -1.52    0.15   -0.44
#  19    0.17   -2.01    0.28    0.05    0.26    0.00    0.00      -1.25    0.08    0.42
#  20   -0.75   -3.46    1.16   -0.07   -0.42    0.00    0.00      -3.52   -0.10   -0.63
#  21   -0.67   -1.85    0.41    0.10   -0.39    0.00    0.00      -2.39    0.16   -0.63
#  22   -3.22   -0.06    0.01    2.09    0.14    0.00    0.00      -1.04    6.99    0.48
#  23   -0.60   -0.38    0.05    0.40   -0.10    0.00    0.00      -0.63    1.07   -0.28
#  24   -0.23   -1.53    1.95    0.68   -0.15    0.00    0.00       0.72    1.27   -0.28
#  25   -1.19   -1.23    3.06    0.78   -0.09    0.00    0.00       1.34    2.40   -0.28
#  26   -0.34   -0.65    0.51    0.62   -0.09    0.00    0.00       0.05    1.98   -0.28
#  27   -0.98   -0.12    0.00    0.19   -0.03    0.00    0.00      -0.95    1.62   -0.28
#  28   -1.60   -0.19    0.01    0.47   -0.06    0.00    0.00      -1.36    2.38   -0.28
#  29   -0.86   -0.09    0.00    0.41   -0.02    0.00    0.00      -0.56    4.69   -0.28
#  30   -2.52   -0.43    0.45    0.67   -0.05    0.00    0.00      -1.89    3.43   -0.28
#  31   -0.39   -0.09    0.00    0.51   -0.02    0.00    0.00       0.01    6.07   -0.28
#  32   -0.93   -0.15    0.01    0.96   -0.04    0.00    0.00      -0.15    6.38   -0.28
#  33   -7.80   -0.73    0.61    4.25   -0.11    0.00    0.00      -3.77   11.25   -0.28
#  34    1.96   -0.31    0.04    0.73   -0.09    0.00    0.00       2.33    2.18   -0.27
#  35   -0.14   -0.50    0.15    0.46   -0.11    0.00    0.00      -0.14    1.06   -0.26
@<TRIPOS>MOLECULE
E48317719
   35    36     0     0     0
SMALL
USER_CHARGES


@<TRIPOS>ATOM
      1 Cl1        25.4463   15.3138   63.6095 Cl        1            -0.0253
      2 C1         23.7159   15.4540   63.6107 C.ar      1            -0.1579
      3 C2         23.1092   16.7067   63.5740 C.ar      1             0.4528
      4 N1         23.8959   17.8528   63.5358 N.pl3     1            -0.7018
      5 C3         23.2641   19.1740   63.4971 C.3       1             0.1247
      6 C4         24.1688   20.1500   62.7422 C.3       1            -0.1353
      7 C5         24.3838   19.6454   61.3139 C.3       1            -0.1361
      8 C6         25.2886   20.6214   60.5590 C.3       1             0.0914
      9 N2         24.6569   21.9426   60.5203 N.pl3     1            -0.4090
     10 C7         25.2692   23.1431   60.7606 C.2       1             0.0250
     11 C8         24.3281   24.0958   60.6191 C.2       1             0.0050
     12 N3         23.1725   23.4935   60.3009 N.pl3     1            -0.4760
     13 H1         22.3291   23.9452   60.1413 H         1             0.4660
     14 C9         23.3631   22.2041   60.2351 C.cat     1             0.2882
     15 N4         21.7900   16.8162   63.5745 N.ar      1            -0.5152
     16 C10        21.0071   15.7542   63.6099 C.ar      1             0.2371
     17 C11        21.5407   14.4819   63.6480 C.ar      1            -0.1521
     18 C12        22.9204   14.3222   63.6426 C.ar      1             0.0396
     19 N5         20.6515   13.2995   63.6880 N.pl3     1             0.0449
     20 O1         21.1252   12.1878   63.7212 O.2       1            -0.1510
     21 O2         19.4512   13.4454   63.6874 O.3       1            -0.1531
     22 H2         24.8629   17.7774   63.5349 H         1             0.4183
     23 H3         22.3027   19.1023   62.9885 H         1             0.0778
     24 H4         23.1110   19.5336   64.5147 H         1             0.0774
     25 H5         23.6989   21.1330   62.7133 H         1             0.0828
     26 H6         25.1302   20.2218   63.2508 H         1             0.0831
     27 H7         24.8540   18.6624   61.3428 H         1             0.0868
     28 H8         23.4226   19.5736   60.8053 H         1             0.0848
     29 H9         26.2501   20.6931   61.0677 H         1             0.1234
     30 H10        25.4418   20.2620   59.5414 H         1             0.1260
     31 H11        26.3074   23.2967   61.0152 H         1             0.2230
     32 H12        24.4773   25.1585   60.7403 H         1             0.2243
     33 H13        22.6103   21.4680   59.9949 H         1             0.2597
     34 H14        19.9348   15.8824   63.6094 H         1             0.1946
     35 H15        23.3624   13.3370   63.6666 H         1             0.1762
@<TRIPOS>BOND
     1    1    2 1 
     2    2   18 ar
     3    2    3 ar
     4    3    4 1 
     5    3   15 ar
     6    4    5 1 
     7    4   22 1 
     8    5    6 1 
     9    5   23 1 
    10    5   24 1 
    11    6    7 1 
    12    6   25 1 
    13    6   26 1 
    14    7    8 1 
    15    7   27 1 
    16    7   28 1 
    17    8    9 1 
    18    8   29 1 
    19    8   30 1 
    20    9   14 1 
    21    9   10 1 
    22   10   11 2 
    23   10   31 1 
    24   11   12 1 
    25   11   32 1 
    26   12   13 1 
    27   12   14 2 
    28   14   33 1 
    29   15   16 ar
    30   16   17 ar
    31   16   34 1 
    32   17   18 ar
    33   17   19 1 
    34   18   35 1 
    35   19   20 2 
    36   19   21 1 
##########                 Name:            E36615949
##########          Protonation:                   33
##########               SMILES:   CCc1c(snn1)C(=O)[N-]c2c[nH+]c3n2CCCC3
##########            Long Name:   zole-5-carbonyl)-(5,6,7,8-tetrahydroimidazo[1,2-a]pyridin-1-ium-3-yl)azanide
##########          FlexRecCode: 1
##########               Number:                  401
##########   Ligand Source File: /raidb/db2/rgc/leads-emolecules-300/leads-lt300-emolecules-1i-0000014.db2.gz
##########           GlobalRank: 4312
##########                 Rank:                    1
##########               Setnum:                  230
##########             Matchnum:                 4692
##########                Cloud:                    1
##########        Electrostatic:           -23.928589
##########        Van der Waals:           -24.253765
##########  Ligand Polar Desolv:             9.621654
########## Ligand Apolar Desolv:            -1.417461
##########      Internal Energy:             0.000000
##########      Receptor Energy: 0.0
########## Receptor Desolvation:             0.000000
########## Receptor Hydrophobic:             0.000000
##########         Total Energy: -39.98
##########        Ligand Charge:             0.000000
##########            Arbitrary:    +999.9990
##########     heavy atom count:   19
##########           pose count:    1
##########        Ligand Energy:             0.000000
# num electro vdwattr vdwrepu polsolv apolsol rdesolv rhydroe totalscore fullpol fullapo
#   1    0.36   -0.99    0.18    0.30   -0.08    0.00    0.00      -0.24    0.73   -0.19
#   2    0.03   -0.98    0.16    0.11   -0.11    0.00    0.00      -0.78    0.27   -0.26
#   3    0.11   -1.76    0.48   -0.20   -0.34    0.00    0.00      -1.70   -0.41   -0.68
#   4   -0.82   -1.61    0.33    1.02   -0.17    0.00    0.00      -1.26    1.85   -0.31
#   5    1.14   -3.62    0.83   -1.94   -0.53    0.00    0.00      -4.12   -3.09   -0.85
#   6   -1.21   -3.87    1.72    1.78    0.32    0.00    0.00      -1.26    2.76    0.50
#   7   -0.49   -2.50    0.61    1.83    0.62    0.00    0.00       0.06    3.24    1.10
#   8    5.91   -2.01    0.64   -2.72   -0.32    0.00    0.00       1.50   -5.57   -0.65
#   9   -9.85   -2.04    0.69    3.84    0.16    0.00    0.00      -7.21    7.07    0.29
#  10   -5.61   -3.01    2.48    2.84    1.57    0.00    0.00      -1.73    6.13    3.40
#  11   -0.76   -2.00    1.21   -0.53   -0.93    0.00    0.00      -3.01   -1.17   -2.07
#  12    0.87   -2.42    1.08    0.14   -0.47    0.00    0.00      -0.80    0.28   -0.93
#  13    7.65   -2.30    0.54   -1.39    0.60    0.00    0.00       5.10   -2.53    1.09
#  14  -10.68   -0.08    0.01    2.69    0.32    0.00    0.00      -7.74    5.05    0.60
#  15   -4.30   -1.47    0.17    1.06   -1.01    0.00    0.00      -5.55    2.24   -2.12
#  16    1.45   -1.77    1.02   -0.28   -0.11    0.00    0.00       0.31   -0.65   -0.26
#  17    2.52   -0.82    0.21   -0.48   -0.08    0.00    0.00       1.35   -1.47   -0.25
#  18    1.96   -0.89    0.16   -0.40   -0.09    0.00    0.00       0.76   -1.16   -0.25
#  19   -1.03   -0.93    0.10    0.15   -0.21    0.00    0.00      -1.92    0.38   -0.52
#  20    4.38   -1.19    0.09   -0.37    0.59    0.00    0.00       3.51   -0.81    1.30
#  21   -0.20   -0.24    0.03   -0.06   -0.06    0.00    0.00      -0.53   -0.29   -0.28
#  22   -0.03   -0.57    0.31   -0.09   -0.10    0.00    0.00      -0.48   -0.25   -0.28
#  23   -0.32   -0.28    0.05   -0.09   -0.08    0.00    0.00      -0.73   -0.30   -0.28
#  24    0.09   -0.46    0.15   -0.20   -0.10    0.00    0.00      -0.53   -0.56   -0.28
#  25   -0.35   -0.24    0.06   -0.16   -0.05    0.00    0.00      -0.74   -0.75   -0.22
#  26   -0.25   -0.79    0.77   -0.46   -0.10    0.00    0.00      -0.84   -0.97   -0.20
#  27   -3.90   -1.32    2.56    1.11   -0.13    0.00    0.00      -1.68    2.34   -0.28
#  28   -3.40   -0.85    1.02    1.03   -0.11    0.00    0.00      -2.32    2.55   -0.28
#  29   -1.52   -0.18    0.02    0.30   -0.05    0.00    0.00      -1.43    1.78   -0.28
#  30   -1.65   -0.32    0.18    0.14   -0.05    0.00    0.00      -1.70    0.75   -0.28
#  31   -0.69   -0.25    0.03    0.18   -0.06    0.00    0.00      -0.79    0.79   -0.28
#  32   -1.94   -0.65    0.92    0.33   -0.08    0.00    0.00      -1.43    1.19   -0.28
#  33   -0.80   -0.22    0.02    0.02   -0.06    0.00    0.00      -1.04    0.09   -0.28
#  34   -0.62   -0.55    0.13    0.15   -0.12    0.00    0.00      -1.01    0.34   -0.28
@<TRIPOS>MOLECULE
E36615949
   34    36     0     0     0
SMALL
USER_CHARGES


@<TRIPOS>ATOM
      1 C1         24.5336   14.9981   63.2121 C.3       1            -0.1391
      2 C2         23.1457   15.6326   63.3233 C.3       1            -0.0426
      3 C3         22.1126   14.5514   63.5086 C.2       1             0.0611
      4 C4         20.7546   14.8212   63.6347 C.2       1            -0.1676
      5 S1         20.1222   13.1619   63.8176 S.3       1             0.3189
      6 N1         21.5305   12.3639   63.7228 N.2       1            -0.2215
      7 N2         22.4187   13.2784   63.5589 N.2       1            -0.2697
      8 C5         20.0417   16.1082   63.6219 C.2       1             0.5599
      9 O1         18.8320   16.1349   63.7488 O.2       1            -0.5830
     10 N3         20.7287   17.2577   63.4693 N.2       1            -0.6842
     11 C6         20.9568   17.7702   62.1908 C.2       1             0.3537
     12 C7         20.1568   17.6266   61.1053 C.2       1            -0.1452
     13 N4         20.7318   18.2673   60.0745 N.pl3     1            -0.4455
     14 H1         20.3689   18.3234   59.1767 H         1             0.4433
     15 C8         21.8510   18.8016   60.4682 C.cat     1             0.2312
     16 C9         22.8187   19.6090   59.6367 C.3       1            -0.0514
     17 C10        24.1460   19.6548   60.4021 C.3       1            -0.1262
     18 C11        23.8798   20.0803   61.8485 C.3       1            -0.1432
     19 C12        23.1731   18.9440   62.5955 C.3       1             0.1124
     20 N5         22.0258   18.5190   61.7906 N.pl3     1            -0.4188
     21 H2         25.2808   15.7803   63.0780 H         1             0.0531
     22 H3         24.7516   14.4394   64.1222 H         1             0.0568
     23 H4         24.5569   14.3230   62.3568 H         1             0.0645
     24 H5         23.1225   16.3080   64.1786 H         1             0.0808
     25 H6         22.9277   16.1913   62.4131 H         1             0.1025
     26 H7         19.2201   17.0898   61.0749 H         1             0.2209
     27 H8         22.9652   19.1298   58.6686 H         1             0.1078
     28 H9         22.4353   20.6200   59.4988 H         1             0.1072
     29 H10        24.6063   18.6666   60.3920 H         1             0.0943
     30 H11        24.8150   20.3731   59.9284 H         1             0.0789
     31 H12        24.8261   20.3051   62.3407 H         1             0.0803
     32 H13        23.2472   20.9679   61.8552 H         1             0.1011
     33 H14        23.8611   18.1095   62.7321 H         1             0.1113
     34 H15        22.8266   19.3009   63.5654 H         1             0.0981
@<TRIPOS>BOND
     1    1    2 1 
     2    1   21 1 
     3    1   22 1 
     4    1   23 1 
     5    2    3 1 
     6    2   24 1 
     7    2   25 1 
     8    3    7 1 
     9    3    4 2 
    10    4    5 1 
    11    4    8 1 
    12    5    6 1 
    13    6    7 2 
    14    8    9 2 
    15    8   10 1 
    16   10   11 1 
    17   11   20 1 
    18   11   12 2 
    19   12   13 1 
    20   12   26 1 
    21   13   14 1 
    22   13   15 2 
    23   15   20 1 
    24   15   16 1 
    25   16   17 1 
    26   16   27 1 
    27   16   28 1 
    28   17   18 1 
    29   17   29 1 
    30   17   30 1 
    31   18   19 1 
    32   18   31 1 
    33   18   32 1 
    34   19   20 1 
    35   19   33 1 
    36   19   34 1 
##########                 Name:             E3979888
##########          Protonation:                   47
##########               SMILES:   [H]/N=C(/Nc1cc(ccc1Cl)C(F)(F)F)\NC(=[NH2+])N
##########            Long Name:   N-[2-chloro-5-(trifluoromethyl)phenyl]carbamimidoyl]amino]methylene]ammonium
##########          FlexRecCode: 1
##########               Number:                  494
##########   Ligand Source File: /raidb/db2/rgc/leads-emolecules-300/leads-lt300-emolecules-1j-0000046.db2.gz
##########           GlobalRank: 4312
##########                 Rank:                    1
##########               Setnum:                   17
##########             Matchnum:                 5695
##########                Cloud:                    1
##########        Electrostatic:           -24.550825
##########        Van der Waals:           -21.227285
##########  Ligand Polar Desolv:             9.309934
########## Ligand Apolar Desolv:            -3.510238
##########      Internal Energy:             0.000000
##########      Receptor Energy: 0.0
########## Receptor Desolvation:             0.000000
########## Receptor Hydrophobic:             0.000000
##########         Total Energy: -39.98
##########        Ligand Charge:             1.000000
##########            Arbitrary:    +999.9990
##########     heavy atom count:   18
##########           pose count:    1
##########        Ligand Energy:             0.000000
# num electro vdwattr vdwrepu polsolv apolsol rdesolv rhydroe totalscore fullpol fullapo
#   1   19.39   -3.22    4.35   -8.99    0.23    0.00    0.00      11.78  -24.15    0.63
#   2  -15.54   -1.65    0.44    9.45   -1.95    0.00    0.00      -9.25   23.46   -4.85
#   3   17.72   -1.60    0.35   -9.36    0.37    0.00    0.00       7.48  -23.39    0.92
#   4  -14.50   -0.06    0.01    5.37    0.21    0.00    0.00      -8.97   15.58    0.60
#   5   -8.87   -0.02    0.00    4.43    0.17    0.00    0.00      -4.29   15.69    0.60
#   6    8.98   -2.36    0.89   -8.01    0.47    0.00    0.00      -0.04  -18.51    1.09
#   7   -4.37   -1.40    0.19    6.19   -2.05    0.00    0.00      -1.44   14.20   -4.71
#   8    5.61   -1.55    0.29   -7.44    0.44    0.00    0.00      -2.65  -16.24    0.95
#   9    1.37   -1.57    0.21   -5.40    0.46    0.00    0.00      -4.94  -12.21    1.03
#  10    0.12   -1.51    0.27    1.23   -0.29    0.00    0.00      -0.19    2.90   -0.69
#  11    0.04   -1.53    0.30   -0.31   -0.12    0.00    0.00      -1.63   -0.74   -0.29
#  12    0.16   -2.75    0.83   -0.20   -0.33    0.00    0.00      -2.29   -0.57   -0.94
#  13    0.06   -2.09    0.59   -0.52   -0.23    0.00    0.00      -2.18   -1.05   -0.46
#  14   -0.19   -2.18    0.57   -0.62   -0.26    0.00    0.00      -2.67   -1.05   -0.44
#  15   -0.68   -1.67    0.36   -0.97   -0.21    0.00    0.00      -3.18   -1.67   -0.37
#  16   -0.36   -1.66    0.38   -0.46   -0.18    0.00    0.00      -2.29   -1.00   -0.40
#  17    2.83   -1.36    0.34    2.13   -0.04    0.00    0.00       3.89    3.54   -0.07
#  18   -0.21   -1.90    0.81   -0.70   -0.28    0.00    0.00      -2.29   -1.08   -0.44
#  19   -1.24   -1.08    0.17   -0.72   -0.28    0.00    0.00      -3.14   -1.23   -0.47
#  20   -1.27   -1.96    1.45   -0.72   -0.28    0.00    0.00      -2.78   -1.24   -0.48
#  21  -10.24   -0.03    0.00    4.39    0.18    0.00    0.00      -5.69   14.55    0.60
#  22  -13.90   -0.36    0.50    4.31    0.18    0.00    0.00      -9.28   12.32    0.52
#  23   -5.78   -0.10    0.01    6.51    0.27    0.00    0.00       0.92   14.34    0.60
#  24   -4.85   -0.02    0.00    3.26    0.13    0.00    0.00      -1.48    8.74    0.36
#  25   -0.96   -0.03    0.00    3.89    0.22    0.00    0.00       3.11    9.41    0.52
#  26   -0.71   -0.63    0.50    0.84   -0.12    0.00    0.00      -0.12    1.99   -0.28
#  27    0.81   -0.64    0.18    0.78   -0.14    0.00    0.00       1.00    1.37   -0.25
#  28    2.05   -0.39    0.11    0.93   -0.06    0.00    0.00       2.63    2.65   -0.18
@<TRIPOS>MOLECULE
E3979888
   28    28     0     0     0
SMALL
USER_CHARGES


@<TRIPOS>ATOM
      1 N1         23.0189   21.5620   61.1294 N.pl3     1            -0.8113
      2 C1         22.7806   20.2535   61.1782 C.cat     1             0.7718
      3 N2         23.1120   19.4777   60.1484 N.pl3     1            -0.7543
      4 H1         23.5271   19.8660   59.3625 H         1             0.4453
      5 H2         22.9382   18.5239   60.1841 H         1             0.4504
      6 N3         22.1930   19.7036   62.2905 N.pl3     1            -0.6714
      7 C2         21.9457   18.3462   62.3410 C.2       1             0.6228
      8 N4         21.1677   17.7928   61.4556 N.2       1            -0.7434
      9 N5         22.5215   17.5782   63.3269 N.pl3     1            -0.6322
     10 C3         22.2710   16.2025   63.3781 C.ar      1             0.1648
     11 C4         23.3225   15.2986   63.2792 C.ar      1            -0.0389
     12 Cl1        24.9493   15.8750   63.0922 Cl        1            -0.0429
     13 C5         23.0710   13.9409   63.3301 C.ar      1            -0.0825
     14 C6         21.7750   13.4815   63.4790 C.ar      1            -0.0685
     15 C7         20.7273   14.3782   63.5773 C.ar      1            -0.1556
     16 C8         20.9723   15.7373   63.5337 C.ar      1            -0.0698
     17 C9         19.3169   13.8727   63.7389 C.3       1             0.5108
     18 F1         19.3226   12.4739   63.7623 F         1            -0.1703
     19 F2         18.7824   14.3569   64.9378 F         1            -0.1711
     20 F3         18.5361   14.3180   62.6669 F         1            -0.1738
     21 H3         23.4323   21.9509   60.3428 H         1             0.4488
     22 H4         22.7757   22.1275   61.8790 H         1             0.4521
     23 H5         21.9514   20.2688   63.0410 H         1             0.4384
     24 H6         20.8441   18.3114   60.7024 H         1             0.3588
     25 H7         23.1012   17.9904   63.9865 H         1             0.4272
     26 H8         23.8872   13.2378   63.2533 H         1             0.1576
     27 H9         21.5809   12.4198   63.5183 H         1             0.1557
     28 H10        20.1537   16.4369   63.6154 H         1             0.1815
@<TRIPOS>BOND
     1    1    2 1 
     2    1   21 1 
     3    1   22 1 
     4    2    3 2 
     5    2    6 1 
     6    3    4 1 
     7    3    5 1 
     8    6    7 1 
     9    6   23 1 
    10    7    8 2 
    11    7    9 1 
    12    8   24 1 
    13    9   10 1 
    14    9   25 1 
    15   10   16 ar
    16   10   11 ar
    17   11   12 1 
    18   11   13 ar
    19   13   14 ar
    20   13   26 1 
    21   14   15 ar
    22   14   27 1 
    23   15   16 ar
    24   15   17 1 
    25   16   28 1 
    26   17   18 1 
    27   17   19 1 
    28   17   20 1 
##########                 Name:             E1748776
##########          Protonation:                  100
##########               SMILES:   Cc1ccc(cc1C)C(=O)COC(=O)c2ccc(cc2)F
##########            Long Name:   [2-(3,4-dimethylphenyl)-2-oxo-ethyl]
##########          FlexRecCode: 1
##########               Number:                  366
##########   Ligand Source File: /raidb/db2/rgc/leads-emolecules-300/leads-emolecules-2b-0000072.db2.gz
##########           GlobalRank: 4351
##########                 Rank:                    1
##########               Setnum:                   80
##########             Matchnum:                  631
##########                Cloud:                    1
##########        Electrostatic:            -7.359524
##########        Van der Waals:           -31.380926
##########  Ligand Polar Desolv:             4.137388
########## Ligand Apolar Desolv:            -5.357502
##########      Internal Energy:             0.000000
##########      Receptor Energy: 0.0
########## Receptor Desolvation:             0.000000
########## Receptor Hydrophobic:             0.000000
##########         Total Energy: -39.96
##########        Ligand Charge:             0.000000
##########            Arbitrary:    +999.9990
##########     heavy atom count:   21
##########           pose count:    1
##########        Ligand Energy:             0.000000
# num electro vdwattr vdwrepu polsolv apolsol rdesolv rhydroe totalscore fullpol fullapo
#   1    1.00   -1.20    0.75   -0.13   -0.05    0.00    0.00       0.37   -0.45   -0.18
#   2    0.21   -1.36    0.22   -0.02   -0.15    0.00    0.00      -1.10   -0.05   -0.41
#   3    0.33   -1.49    0.30   -0.10   -0.17    0.00    0.00      -1.14   -0.27   -0.45
#   4    0.04   -1.80    0.45   -0.05   -0.20    0.00    0.00      -1.56   -0.10   -0.44
#   5   -0.36   -1.67    0.42    0.16   -0.19    0.00    0.00      -1.64    0.34   -0.41
#   6   -0.12   -1.58    0.32    0.09   -0.19    0.00    0.00      -1.48    0.21   -0.43
#   7    0.25   -1.34    0.15    0.03   -0.17    0.00    0.00      -1.07    0.08   -0.40
#   8    0.79   -1.15    0.18   -0.06   -0.08    0.00    0.00      -0.31   -0.13   -0.18
#   9    1.63   -1.77    0.31   -0.73   -0.18    0.00    0.00      -0.74   -1.23   -0.31
#  10   -1.92   -2.54    0.84    2.22   -0.16    0.00    0.00      -1.57    3.50   -0.26
#  11    0.12   -1.29    0.28   -0.01   -0.05    0.00    0.00      -0.94   -0.01   -0.09
#  12   -2.44   -1.90    0.66    0.62    0.09    0.00    0.00      -2.96    1.05    0.15
#  13    6.69   -2.02    0.39   -0.92   -0.10    0.00    0.00       4.04   -1.52   -0.16
#  14  -10.19   -2.65    1.53    1.31   -0.22    0.00    0.00     -10.22    2.31   -0.39
#  15   -1.82   -2.56    0.97    0.16   -0.26    0.00    0.00      -3.50    0.26   -0.41
#  16   -0.37   -3.09    1.57    0.01   -0.27    0.00    0.00      -2.15    0.02   -0.45
#  17   -1.89   -2.67    1.42   -0.02   -0.29    0.00    0.00      -3.45   -0.03   -0.47
#  18    1.36   -2.49    0.83   -0.04   -0.22    0.00    0.00      -0.55   -0.06   -0.34
#  19   -1.13   -1.54    0.51    0.16   -0.31    0.00    0.00      -2.32    0.25   -0.48
#  20   -1.06   -3.26    1.00   -0.07   -0.30    0.00    0.00      -3.69   -0.11   -0.47
#  21   -0.16   -2.88    0.81    0.01   -0.30    0.00    0.00      -2.53    0.01   -0.46
#  22   -0.61   -0.37    0.31    0.07   -0.05    0.00    0.00      -0.66    0.37   -0.28
#  23   -0.70   -0.14    0.01    0.05   -0.03    0.00    0.00      -0.82    0.42   -0.28
#  24   -0.63   -1.02    2.03    0.10   -0.07    0.00    0.00       0.41    0.32   -0.23
#  25   -0.42   -0.24    0.03    0.19   -0.06    0.00    0.00      -0.50    0.82   -0.28
#  26   -0.20   -0.45    0.12    0.32   -0.10    0.00    0.00      -0.30    0.78   -0.24
#  27    1.11   -0.35    0.08   -0.16   -0.08    0.00    0.00       0.60   -0.48   -0.26
#  28   -0.34   -0.61    0.47    0.05   -0.11    0.00    0.00      -0.53    0.14   -0.28
#  29   -0.43   -0.58    0.14    0.02   -0.12    0.00    0.00      -0.97    0.05   -0.28
#  30   -0.90   -0.20    0.01    0.06   -0.05    0.00    0.00      -1.08    0.26   -0.23
#  31    0.69   -0.37    0.09    0.08   -0.11    0.00    0.00       0.39    0.22   -0.28
#  32    0.46   -0.56    0.21    0.12   -0.15    0.00    0.00       0.07    0.22   -0.28
#  33    1.54   -0.80    0.38   -0.01   -0.15    0.00    0.00       0.97   -0.01   -0.27
#  34    1.37   -0.51    0.12    0.18   -0.13    0.00    0.00       1.03    0.38   -0.28
#  35    0.19   -1.06    0.71    0.34   -0.17    0.00    0.00       0.01    0.54   -0.28
#  36    0.52   -0.59    0.10    0.08   -0.15    0.00    0.00      -0.04    0.13   -0.26
@<TRIPOS>MOLECULE
E1748776
   36    37     0     0     0
SMALL
USER_CHARGES


@<TRIPOS>ATOM
      1 C1         25.0124   17.8938   62.7231 C.3       1            -0.1252
      2 C2         23.9459   16.8672   63.0052 C.ar      1            -0.0492
      3 C3         24.2994   15.5436   63.2029 C.ar      1            -0.1278
      4 C4         23.3295   14.5985   63.4614 C.ar      1            -0.0761
      5 C5         21.9854   14.9801   63.5235 C.ar      1            -0.1711
      6 C6         21.6363   16.3193   63.3227 C.ar      1            -0.0521
      7 C7         22.6187   17.2537   63.0706 C.ar      1            -0.0981
      8 C8         22.2455   18.6984   62.8599 C.3       1            -0.1189
      9 C9         20.9438   13.9774   63.7986 C.2       1             0.4001
     10 O1         21.2008   13.0071   64.4788 O.2       1            -0.4268
     11 C10        19.5578   14.1566   63.2346 C.3       1             0.0214
     12 O2         18.6134   14.2255   64.3048 O.3       1            -0.3299
     13 C11        17.8820   15.3527   64.4035 C.2       1             0.5136
     14 O3         18.3438   16.4114   64.0272 O.2       1            -0.4994
     15 C12        16.5195   15.3011   64.9690 C.ar      1            -0.1416
     16 C13        15.4246   15.6974   64.1972 C.ar      1            -0.0285
     17 C14        14.1546   15.6467   64.7302 C.ar      1            -0.1672
     18 C15        13.9627   15.2038   66.0300 C.ar      1             0.1399
     19 F1         12.7156   15.1565   66.5477 F         1            -0.1293
     20 C16        15.0457   14.8087   66.8006 C.ar      1            -0.1663
     21 C17        16.3195   14.8503   66.2761 C.ar      1            -0.0222
     22 H1         25.9887   17.4092   62.7092 H         1             0.0778
     23 H2         24.8234   18.3576   61.7550 H         1             0.0718
     24 H3         24.9968   18.6572   63.5009 H         1             0.0739
     25 H4         25.3377   15.2504   63.1541 H         1             0.1323
     26 H5         23.6070   13.5661   63.6151 H         1             0.1326
     27 H6         20.6006   16.6215   63.3689 H         1             0.1362
     28 H7         21.1648   18.8112   62.9479 H         1             0.0743
     29 H8         22.7375   19.3143   63.6128 H         1             0.0701
     30 H9         22.5641   19.0149   61.8668 H         1             0.0724
     31 H10        19.5179   15.0790   62.6550 H         1             0.1074
     32 H11        19.3157   13.3117   62.5902 H         1             0.1074
     33 H12        15.5731   16.0432   63.1848 H         1             0.1523
     34 H13        13.3075   15.9529   64.1344 H         1             0.1477
     35 H14        14.8904   14.4646   67.8125 H         1             0.1486
     36 H15        17.1621   14.5388   66.8759 H         1             0.1501
@<TRIPOS>BOND
     1    1    2 1 
     2    1   22 1 
     3    1   23 1 
     4    1   24 1 
     5    2    7 ar
     6    2    3 ar
     7    3    4 ar
     8    3   25 1 
     9    4    5 ar
    10    4   26 1 
    11    5    6 ar
    12    5    9 1 
    13    6    7 ar
    14    6   27 1 
    15    7    8 1 
    16    8   28 1 
    17    8   29 1 
    18    8   30 1 
    19    9   10 2 
    20    9   11 1 
    21   11   12 1 
    22   11   31 1 
    23   11   32 1 
    24   12   13 1 
    25   13   14 2 
    26   13   15 1 
    27   15   21 ar
    28   15   16 ar
    29   16   17 ar
    30   16   33 1 
    31   17   18 ar
    32   17   34 1 
    33   18   19 1 
    34   18   20 ar
    35   20   21 ar
    36   20   35 1 
    37   21   36 1 
##########                 Name:            E23834436
##########          Protonation:                   93
##########               SMILES:   Cn1ncc(c1)C[NH+]2CC[C@@H](CC2)Cc3ccc(cc3)F
##########            Long Name:   4-[(4-fluorophenyl)methyl]-1-[(1-methylpyrazol-4-yl)methyl]piperidin-1-ium
##########          FlexRecCode: 1
##########               Number:                   62
##########   Ligand Source File: /raidb/db2/rgc/leads-emolecules-300/leads-emolecules-2c-0000077.db2.gz
##########           GlobalRank: 4351
##########                 Rank:                    1
##########               Setnum:                    2
##########             Matchnum:                 2016
##########                Cloud:                    1
##########        Electrostatic:           -21.744406
##########        Van der Waals:           -24.049170
##########  Ligand Polar Desolv:             9.528045
########## Ligand Apolar Desolv:            -3.695961
##########      Internal Energy:             0.000000
##########      Receptor Energy: 0.0
########## Receptor Desolvation:             0.000000
########## Receptor Hydrophobic:             0.000000
##########         Total Energy: -39.96
##########        Ligand Charge:             1.000000
##########            Arbitrary:    +999.9990
##########     heavy atom count:   21
##########           pose count:    1
##########        Ligand Energy:             0.000000
# num electro vdwattr vdwrepu polsolv apolsol rdesolv rhydroe totalscore fullpol fullapo
#   1   -0.45   -0.66    0.08    0.42   -0.20    0.00    0.00      -0.81    1.28   -0.61
#   2    2.31   -0.78    0.04   -1.79    0.37    0.00    0.00       0.15   -6.23    1.27
#   3   -1.07   -1.08    0.16    0.57   -0.25    0.00    0.00      -1.66    1.94   -0.84
#   4    3.49   -0.87    0.09   -1.74   -0.09    0.00    0.00       0.87   -6.38   -0.34
#   5   -1.11   -0.57    0.07    0.74   -0.09    0.00    0.00      -0.96    2.71   -0.33
#   6    9.58   -1.75    1.39   -4.08    0.15    0.00    0.00       5.31  -11.38    0.43
#   7  -16.32   -0.16    0.07    5.37    0.20    0.00    0.00     -10.84   15.28    0.56
#   8    0.17   -1.22    0.29    0.02   -0.16    0.00    0.00      -0.89    0.06   -0.39
#   9    2.24   -1.46    0.68   -1.66   -0.09    0.00    0.00      -0.28   -3.97   -0.21
#  10    0.89   -0.71    0.04   -0.89   -0.06    0.00    0.00      -0.73   -2.10   -0.15
#  11    0.19   -1.20    0.22   -0.77   -0.09    0.00    0.00      -1.66   -1.72   -0.20
#  12   -0.12   -1.61    0.32   -0.46   -0.14    0.00    0.00      -2.02   -1.05   -0.33
#  13   -0.56   -1.88    0.56   -0.61   -0.21    0.00    0.00      -2.70   -1.32   -0.46
#  14   -0.84   -1.59    0.27   -0.90   -0.26    0.00    0.00      -3.33   -1.61   -0.47
#  15    0.33   -1.92    0.49   -0.10   -0.20    0.00    0.00      -1.39   -0.17   -0.34
#  16   -0.53   -1.50    0.25   -0.34   -0.31    0.00    0.00      -2.44   -0.53   -0.48
#  17   -0.06   -1.97    0.58   -0.90   -0.24    0.00    0.00      -2.58   -1.80   -0.47
#  18    0.05   -1.54    0.30   -0.49   -0.16    0.00    0.00      -1.85   -1.15   -0.38
#  19    1.69   -0.57    0.04   -1.49   -0.06    0.00    0.00      -0.39   -4.48   -0.19
#  20    0.13   -1.19    0.41    0.16   -0.16    0.00    0.00      -0.65    0.43   -0.42
#  21   -0.17   -1.31    0.38    0.26   -0.28    0.00    0.00      -1.12    0.97   -1.05
#  22    0.00   -0.97    0.12   -1.58    0.37    0.00    0.00      -2.06   -5.47    1.30
#  23   -0.47   -0.23    0.03    0.29   -0.06    0.00    0.00      -0.44    1.37   -0.28
#  24   -0.63   -0.19    0.01    0.49   -0.05    0.00    0.00      -0.36    2.57   -0.28
#  25   -0.24   -0.27    0.09    0.12   -0.07    0.00    0.00      -0.36    0.50   -0.28
#  26   -1.41   -0.43    0.20    1.86   -0.08    0.00    0.00       0.15    6.42   -0.26
#  27   -1.66   -0.14    0.02    0.67   -0.03    0.00    0.00      -1.14    5.53   -0.28
#  28   -1.43   -0.16    0.01    0.82   -0.02    0.00    0.00      -0.78    5.07   -0.15
#  29   -3.49   -0.55    0.27    1.29   -0.08    0.00    0.00      -2.57    3.50   -0.23
#  30   -3.37   -0.45    0.17    1.67   -0.10    0.00    0.00      -2.08    4.47   -0.28
#  31   -1.17   -0.57    0.35    1.05   -0.06    0.00    0.00      -0.39    3.40   -0.19
#  32   -1.65   -1.02    1.13    1.10   -0.12    0.00    0.00      -0.55    2.60   -0.28
#  33   -0.87   -0.22    0.02    0.50   -0.07    0.00    0.00      -0.64    1.90   -0.28
#  34   -0.28   -0.47    0.11    0.97   -0.11    0.00    0.00       0.22    2.57   -0.28
#  35   -0.04   -0.75    0.67    0.79   -0.13    0.00    0.00       0.53    1.67   -0.28
#  36    2.00   -0.64    0.54    0.94   -0.10    0.00    0.00       2.74    2.57   -0.28
#  37    1.01   -0.29    0.02    0.29   -0.10    0.00    0.00       0.94    0.80   -0.28
#  38   -0.34   -0.53    0.23    0.56   -0.12    0.00    0.00      -0.20    1.33   -0.28
#  39   -0.32   -0.25    0.03    0.98   -0.07    0.00    0.00       0.37    3.93   -0.28
#  40   -0.87   -0.14    0.01    0.44   -0.03    0.00    0.00      -0.59    3.60   -0.22
#  41   -0.98   -0.21    0.03    0.33   -0.04    0.00    0.00      -0.87    1.68   -0.22
#  42   -3.09   -0.52    0.18    1.80   -0.12    0.00    0.00      -1.74    4.35   -0.28
#  43   -2.62   -0.46    0.23    1.63   -0.09    0.00    0.00      -1.31    5.37   -0.28
#  44    0.31   -0.43    0.18    1.17   -0.07    0.00    0.00       1.16    4.60   -0.28
@<TRIPOS>MOLECULE
E23834436
   44    46     0     0     0
SMALL
USER_CHARGES


@<TRIPOS>ATOM
      1 C1         24.6278   25.2921   59.5046 C.3       1             0.0865
      2 N1         24.8049   24.0616   60.2800 N.pl3     1            -0.3529
      3 C2         24.7316   22.8028   59.7992 C.2       1             0.0979
      4 C3         24.9528   21.9542   60.8297 C.2       1            -0.3161
      5 C4         24.9652   20.4494   60.7521 C.3       1             0.0768
      6 N2         23.8169   19.9904   59.9591 N.4       1            -0.3800
      7 H1         23.8764   20.3762   59.0286 H         1             0.4252
      8 C5         22.5734   20.4408   60.5956 C.3       1            -0.0071
      9 C6         22.5159   19.9233   62.0344 C.3       1            -0.1448
     10 C7         22.5599   18.3925   62.0228 C.3       1            -0.0938
     11 C8         22.5829   17.8705   63.4608 C.3       1            -0.0729
     12 C9         22.1420   16.4296   63.4792 C.ar      1            -0.1065
     13 C10        20.8030   16.1188   63.6267 C.ar      1            -0.0850
     14 C11        20.3975   14.7978   63.6437 C.ar      1            -0.1490
     15 C12        21.3327   13.7853   63.5123 C.ar      1             0.1047
     16 F1         20.9374   12.4936   63.5283 F         1            -0.1340
     17 C13        22.6734   14.0978   63.3640 C.ar      1            -0.1510
     18 C14        23.0760   15.4197   63.3425 C.ar      1            -0.0906
     19 C15        23.8244   17.9337   61.2911 C.3       1            -0.1490
     20 C16        23.8324   18.5247   59.8812 C.3       1            -0.0061
     21 C17        25.1685   22.7207   61.9797 C.2       1             0.0696
     22 N3         25.0861   23.9843   61.6501 N.2       1            -0.2724
     23 H2         24.4192   25.0395   58.4650 H         1             0.0886
     24 H3         23.7943   25.8628   59.9142 H         1             0.0984
     25 H4         25.5380   25.8893   59.5579 H         1             0.1020
     26 H5         24.5320   22.5229   58.7754 H         1             0.1826
     27 H6         25.8894   20.1176   60.2789 H         1             0.1353
     28 H7         24.9020   20.0332   61.7575 H         1             0.1352
     29 H8         22.5420   21.5303   60.6001 H         1             0.1250
     30 H9         21.7200   20.0560   60.0372 H         1             0.1280
     31 H10        23.3687   20.3078   62.5938 H         1             0.0884
     32 H11        21.5910   20.2573   62.5046 H         1             0.1114
     33 H12        21.6796   18.0065   61.5089 H         1             0.0928
     34 H13        23.5950   17.9459   63.8585 H         1             0.0799
     35 H14        21.9062   18.4654   64.0742 H         1             0.0852
     36 H15        20.0736   16.9088   63.7293 H         1             0.1328
     37 H16        19.3514   14.5553   63.7598 H         1             0.1390
     38 H17        23.4039   13.3088   63.2618 H         1             0.1385
     39 H18        24.1213   15.6637   63.2228 H         1             0.1309
     40 H19        24.7045   18.2768   61.8350 H         1             0.0903
     41 H20        23.8349   16.8454   61.2300 H         1             0.1138
     42 H21        22.9522   18.1809   59.3381 H         1             0.1287
     43 H22        24.7315   18.1986   59.3581 H         1             0.1311
     44 H23        25.3728   22.3361   62.9680 H         1             0.1926
@<TRIPOS>BOND
     1    1    2 1 
     2    1   23 1 
     3    1   24 1 
     4    1   25 1 
     5    2   22 1 
     6    2    3 1 
     7    3    4 2 
     8    3   26 1 
     9    4    5 1 
    10    4   21 1 
    11    5    6 1 
    12    5   27 1 
    13    5   28 1 
    14    6    7 1 
    15    6   20 1 
    16    6    8 1 
    17    8    9 1 
    18    8   29 1 
    19    8   30 1 
    20    9   10 1 
    21    9   31 1 
    22    9   32 1 
    23   10   11 1 
    24   10   19 1 
    25   10   33 1 
    26   11   12 1 
    27   11   34 1 
    28   11   35 1 
    29   12   18 ar
    30   12   13 ar
    31   13   14 ar
    32   13   36 1 
    33   14   15 ar
    34   14   37 1 
    35   15   16 1 
    36   15   17 ar
    37   17   18 ar
    38   17   38 1 
    39   18   39 1 
    40   19   20 1 
    41   19   40 1 
    42   19   41 1 
    43   20   42 1 
    44   20   43 1 
    45   21   22 2 
    46   21   44 1 
##########                 Name:            E32135718
##########          Protonation:                  100
##########               SMILES:   Cc1ccc(c(c1)C)c2ncc(s2)C(=O)OCC(=O)N
##########            Long Name:   (2-amino-2-oxo-ethyl)
##########          FlexRecCode: 1
##########               Number:                  274
##########   Ligand Source File: /raidb/db2/rgc/leads-emolecules-300/leads-emolecules-3-bm-0000008.db2.gz
##########           GlobalRank: 4373
##########                 Rank:                    1
##########               Setnum:                    7
##########             Matchnum:                 5766
##########                Cloud:                    1
##########        Electrostatic:            -8.365092
##########        Van der Waals:           -31.755342
##########  Ligand Polar Desolv:             4.219133
########## Ligand Apolar Desolv:            -4.044746
##########      Internal Energy:             0.000000
##########      Receptor Energy: 0.0
########## Receptor Desolvation:             0.000000
########## Receptor Hydrophobic:             0.000000
##########         Total Energy: -39.95
##########        Ligand Charge:             0.000000
##########            Arbitrary:    +999.9990
##########     heavy atom count:   20
##########           pose count:    1
##########        Ligand Energy:             0.000000
# num electro vdwattr vdwrepu polsolv apolsol rdesolv rhydroe totalscore fullpol fullapo
#   1   -1.30   -1.52    0.36   -0.27   -0.13    0.00    0.00      -2.87   -0.41   -0.20
#   2   -0.66   -2.37    0.63   -0.03   -0.26    0.00    0.00      -2.68   -0.04   -0.41
#   3   -1.48   -3.48    1.87   -0.07   -0.27    0.00    0.00      -3.44   -0.12   -0.45
#   4   -1.09   -3.19    1.14    0.03   -0.27    0.00    0.00      -3.39    0.05   -0.46
#   5   -0.69   -2.25    0.56    0.14   -0.25    0.00    0.00      -2.50    0.23   -0.41
#   6    1.25   -1.82    0.28   -0.21   -0.36    0.00    0.00      -0.86   -0.36   -0.61
#   7   -7.43   -2.18    0.77    1.16    0.71    0.00    0.00      -6.97    2.25    1.38
#   8    0.95   -1.66    0.36   -0.24   -0.46    0.00    0.00      -1.06   -0.51   -0.99
#   9   -1.25   -1.67    0.32    0.70   -0.18    0.00    0.00      -2.07    1.23   -0.31
#  10    1.27   -3.46    1.13   -0.44   -0.47    0.00    0.00      -1.97   -0.73   -0.78
#  11    0.93   -2.06    0.52   -1.23   -0.09    0.00    0.00      -1.92   -2.31   -0.16
#  12   -1.85   -3.31    1.24    1.53   -0.24    0.00    0.00      -2.64    2.57   -0.41
#  13    0.57   -1.40    0.29    0.59    0.08    0.00    0.00       0.13    1.31    0.18
#  14   -0.13   -1.34    0.39    0.00   -0.05    0.00    0.00      -1.13    0.01   -0.12
#  15   -1.44   -1.77    0.56   -0.20   -0.24    0.00    0.00      -3.09   -0.58   -0.69
#  16    4.30   -1.69    0.61   -1.01    0.62    0.00    0.00       2.83   -3.19    1.95
#  17    1.05   -1.56    0.42    1.41   -0.08    0.00    0.00       1.23    4.53   -0.27
#  18   -0.19   -2.47    0.51    0.06   -0.27    0.00    0.00      -2.36    0.09   -0.41
#  19   -0.78   -2.45    0.69    0.18   -0.13    0.00    0.00      -2.49    0.27   -0.19
#  20   -1.47   -2.74    0.88    0.03   -0.29    0.00    0.00      -3.58    0.05   -0.44
#  21    0.71   -0.62    0.43    0.17   -0.14    0.00    0.00       0.55    0.35   -0.28
#  22    0.62   -0.42    0.07    0.18   -0.13    0.00    0.00       0.32    0.38   -0.28
#  23    0.89   -0.56    0.16    0.18   -0.17    0.00    0.00       0.50    0.31   -0.28
#  24    0.55   -1.36    2.69    0.34   -0.16    0.00    0.00       2.06    0.60   -0.28
#  25    1.45   -1.00    0.89    0.08   -0.15    0.00    0.00       1.27    0.14   -0.26
#  26    0.47   -0.26    0.03   -0.08   -0.08    0.00    0.00       0.09   -0.27   -0.28
#  27    0.01   -0.87    1.10    0.18   -0.12    0.00    0.00       0.29    0.41   -0.28
#  28   -0.83   -0.69    1.07    0.14   -0.10    0.00    0.00      -0.41    0.41   -0.28
#  29   -1.89   -0.02    0.00    0.67    0.12    0.00    0.00      -1.12    3.44    0.59
#  30   -3.27   -0.04    0.00    0.39    0.13    0.00    0.00      -2.79    1.81    0.60
#  31    0.18   -1.26    0.93   -0.10   -0.18    0.00    0.00      -0.44   -0.16   -0.28
#  32    0.11   -0.86    0.54   -0.02   -0.17    0.00    0.00      -0.39   -0.03   -0.28
#  33    1.00   -0.91    0.51   -0.19   -0.11    0.00    0.00       0.30   -0.32   -0.18
#  34    1.08   -0.68    0.26    0.14   -0.15    0.00    0.00       0.64    0.25   -0.28
@<TRIPOS>MOLECULE
E32135718
   34    35     0     0     0
SMALL
USER_CHARGES


@<TRIPOS>ATOM
      1 C1         13.0575   16.0483   65.6557 C.3       1            -0.1217
      2 C2         14.5028   15.8348   65.2857 C.ar      1            -0.0511
      3 C3         14.9116   16.0117   63.9753 C.ar      1            -0.1282
      4 C4         16.2331   15.8200   63.6301 C.ar      1            -0.0786
      5 C5         17.1593   15.4481   64.6063 C.ar      1            -0.0497
      6 C6         18.5771   15.2413   64.2438 C.2       1             0.1083
      7 N1         19.4245   16.1137   63.7235 N.2       1            -0.5223
      8 C7         20.6602   15.7875   63.4527 C.2       1             0.1519
      9 C8         21.0307   14.4788   63.7412 C.2       1            -0.2966
     10 S1         19.4987   13.8420   64.4018 S.3       1             0.2381
     11 C9         22.3201   13.8100   63.5586 C.2       1             0.5667
     12 O1         22.4503   12.6431   63.8759 O.2       1            -0.4898
     13 O2         23.3640   14.4881   63.0384 O.3       1            -0.3245
     14 C10        24.6703   14.0912   63.4602 C.3       1             0.0472
     15 C11        25.5921   15.2831   63.4285 C.2       1             0.5202
     16 N2         25.1248   16.4861   63.0403 N.am      1            -0.8478
     17 O3         26.7543   15.1597   63.7524 O.2       1            -0.5172
     18 C12        16.7406   15.2730   65.9262 C.ar      1            -0.0170
     19 C13        17.7335   14.8718   66.9866 C.3       1            -0.1343
     20 C14        15.4167   15.4733   66.2590 C.ar      1            -0.1295
     21 H1         12.4922   16.3276   64.7666 H         1             0.0770
     22 H2         12.6498   15.1266   66.0707 H         1             0.0715
     23 H3         12.9850   16.8440   66.3971 H         1             0.0710
     24 H4         14.1939   16.2990   63.2210 H         1             0.1334
     25 H5         16.5505   15.9566   62.6069 H         1             0.1294
     26 H6         21.3561   16.4957   63.0277 H         1             0.1916
     27 H7         24.6205   13.6975   64.4754 H         1             0.1053
     28 H8         25.0501   13.3204   62.7897 H         1             0.1053
     29 H9         24.1953   16.5848   62.7812 H         1             0.4052
     30 H10        25.7181   17.2534   63.0199 H         1             0.4113
     31 H11        17.2245   14.7846   67.9464 H         1             0.0741
     32 H12        18.1789   13.9125   66.7230 H         1             0.0625
     33 H13        18.5152   15.6282   67.0572 H         1             0.1067
     34 H14        15.0921   15.3421   67.2806 H         1             0.1318
@<TRIPOS>BOND
     1    1    2 1 
     2    1   21 1 
     3    1   22 1 
     4    1   23 1 
     5    2   20 ar
     6    2    3 ar
     7    3    4 ar
     8    3   24 1 
     9    4    5 ar
    10    4   25 1 
    11    5    6 1 
    12    5   18 ar
    13    6   10 1 
    14    6    7 2 
    15    7    8 1 
    16    8    9 2 
    17    8   26 1 
    18    9   10 1 
    19    9   11 1 
    20   11   12 2 
    21   11   13 1 
    22   13   14 1 
    23   14   15 1 
    24   14   27 1 
    25   14   28 1 
    26   15   16 am
    27   15   17 2 
    28   16   29 1 
    29   16   30 1 
    30   18   19 1 
    31   18   20 ar
    32   19   31 1 
    33   19   32 1 
    34   19   33 1 
    35   20   34 1 
##########                 Name:            E46383063
##########          Protonation:                  100
##########               SMILES:   c1ccc(c(c1)NC(=O)/C(=C/C=C\c2ccco2)/C#N)F
##########            Long Name:   (2E,4Z)-2-cyano-N-(2-fluorophenyl)-5-(2-furyl)penta-2,4-dienamide
##########          FlexRecCode: 1
##########               Number:                  624
##########   Ligand Source File: /raidb/db2/rgc/leads-emolecules-300/2-leads-lt300-emolecules-1-0000029.db2.gz
##########           GlobalRank: 4384
##########                 Rank:                    1
##########               Setnum:                   56
##########             Matchnum:                 4128
##########                Cloud:                    1
##########        Electrostatic:            -9.268831
##########        Van der Waals:           -31.934418
##########  Ligand Polar Desolv:             4.890230
########## Ligand Apolar Desolv:            -3.624125
##########      Internal Energy:             0.000000
##########      Receptor Energy: 0.0
########## Receptor Desolvation:             0.000000
########## Receptor Hydrophobic:             0.000000
##########         Total Energy: -39.94
##########        Ligand Charge:             0.000000
##########            Arbitrary:    +999.9990
##########     heavy atom count:   21
##########           pose count:    1
##########        Ligand Energy:             0.000000
# num electro vdwattr vdwrepu polsolv apolsol rdesolv rhydroe totalscore fullpol fullapo
#   1   -0.20   -2.35    0.68    0.65   -0.31    0.00    0.00      -1.54    0.95   -0.46
#   2    0.49   -2.80    0.70   -0.10   -0.22    0.00    0.00      -1.93   -0.15   -0.34
#   3   -1.21   -2.88    0.85    0.10   -0.30    0.00    0.00      -3.44    0.16   -0.47
#   4   -1.33   -2.44    0.78   -0.06   -0.30    0.00    0.00      -3.36   -0.10   -0.47
#   5   -1.47   -3.05    1.34    0.00   -0.28    0.00    0.00      -3.46    0.00   -0.47
#   6   -1.26   -2.91    1.36    0.24   -0.24    0.00    0.00      -2.80    0.40   -0.40
#   7    1.19   -2.40    0.90   -0.27   -0.43    0.00    0.00      -1.02   -0.43   -0.68
#   8   -5.30   -2.00    0.38    2.03    0.94    0.00    0.00      -3.95    3.48    1.61
#   9    5.65   -1.96    0.59   -1.62   -0.34    0.00    0.00       2.32   -3.07   -0.65
#  10   -9.37   -3.03    2.26    1.87    0.18    0.00    0.00      -8.10    3.62    0.34
#  11   -0.77   -1.86    0.56    0.37   -0.21    0.00    0.00      -1.92    0.72   -0.41
#  12    0.13   -1.67    0.37   -0.06   -0.18    0.00    0.00      -1.40   -0.13   -0.41
#  13    0.18   -1.55    0.30   -0.11   -0.18    0.00    0.00      -1.37   -0.27   -0.44
#  14   -0.08   -1.30    0.21    0.12   -0.17    0.00    0.00      -1.21    0.35   -0.47
#  15    0.28   -1.13    0.12   -0.08   -0.11    0.00    0.00      -0.93   -0.23   -0.31
#  16    1.48   -0.97    0.06   -0.20   -0.21    0.00    0.00       0.17   -0.49   -0.51
#  17    3.39   -1.28    0.17   -0.39   -0.21    0.00    0.00       1.67   -0.94   -0.51
#  18    0.01   -2.20    0.85    0.00   -0.10    0.00    0.00      -1.45    0.00   -0.27
#  19    1.18   -1.93    0.64   -0.06    0.07    0.00    0.00      -0.10   -0.15    0.19
#  20    0.99   -2.30    0.67   -0.80   -0.71    0.00    0.00      -2.14   -1.36   -1.20
#  21   -2.15   -4.05    2.17    2.07    0.45    0.00    0.00      -1.52    3.29    0.71
#  22    0.82   -0.73    0.23    0.10   -0.16    0.00    0.00       0.26    0.17   -0.28
#  23    1.63   -0.37    0.04    0.45   -0.14    0.00    0.00       1.61    0.88   -0.28
#  24    1.00   -0.98    1.02    0.31   -0.16    0.00    0.00       1.19    0.55   -0.28
#  25    1.85   -0.69    0.33   -0.31   -0.11    0.00    0.00       1.08   -0.60   -0.21
#  26    1.87   -0.04    0.00   -0.87    0.22    0.00    0.00       1.18   -1.99    0.50
#  27    0.32   -0.30    0.05   -0.08   -0.02    0.00    0.00      -0.04   -0.27   -0.07
#  28   -0.13   -0.32    0.05    0.03   -0.08    0.00    0.00      -0.44    0.08   -0.24
#  29   -0.79   -0.22    0.03    0.36   -0.05    0.00    0.00      -0.68    1.89   -0.28
#  30   -1.75   -0.27    0.06    0.37   -0.07    0.00    0.00      -1.66    1.43   -0.28
#  31   -3.33   -0.29    0.04    0.34   -0.09    0.00    0.00      -3.33    1.07   -0.28
#  32   -2.61   -1.02    1.56    0.51   -0.09    0.00    0.00      -1.64    1.55   -0.28
@<TRIPOS>MOLECULE
E46383063
   32    33     0     0     0
SMALL
USER_CHARGES


@<TRIPOS>ATOM
      1 F1         17.6901   14.2676   67.2503 F         1            -0.1370
      2 C1         16.9476   14.7671   66.2381 C.ar      1             0.0722
      3 C2         15.6398   15.1556   66.4648 C.ar      1            -0.1352
      4 C3         14.8800   15.6668   65.4288 C.ar      1            -0.1036
      5 C4         15.4243   15.7915   64.1638 C.ar      1            -0.1102
      6 C5         16.7301   15.4059   63.9300 C.ar      1            -0.0934
      7 C6         17.4988   14.8966   64.9679 C.ar      1             0.1136
      8 N1         18.8235   14.5095   64.7352 N.am      1            -0.6680
      9 C7         19.7218   15.4124   64.2944 C.2       1             0.5802
     10 O1         19.3810   16.5644   64.0986 O.2       1            -0.5111
     11 C8         21.1097   15.0067   64.0506 C.2       1            -0.1538
     12 C9         22.0374   15.9390   63.5955 C.2       1             0.0636
     13 C10        23.3585   15.5529   63.3633 C.2       1            -0.1870
     14 C11        24.2756   16.4746   62.9133 C.2       1             0.0178
     15 C12        23.8577   17.7790   62.5772 C.2       1            -0.0398
     16 C13        22.9263   18.1134   61.6101 C.2       1            -0.1385
     17 C14        22.8256   19.5110   61.6209 C.2       1            -0.2219
     18 C15        23.6766   19.9672   62.5689 C.2       1            -0.0005
     19 O2         24.2905   18.9246   63.1451 O.3       1            -0.1618
     20 C16        21.5106   13.6514   64.2810 C.1       1             0.2436
     21 N2         21.8286   12.5764   64.4637 N.1       1            -0.4060
     22 H1         15.2116   15.0595   67.4516 H         1             0.1405
     23 H2         13.8587   15.9690   65.6080 H         1             0.1356
     24 H3         14.8275   16.1909   63.3570 H         1             0.1354
     25 H4         17.1538   15.5040   62.9415 H         1             0.1517
     26 H5         19.0950   13.5915   64.8914 H         1             0.4131
     27 H6         21.7350   16.9612   63.4217 H         1             0.1740
     28 H7         23.6608   14.5308   63.5371 H         1             0.1345
     29 H8         25.3155   16.1993   62.8175 H         1             0.1639
     30 H9         22.3839   17.4315   60.9720 H         1             0.1599
     31 H10        22.1879   20.1122   60.9898 H         1             0.1575
     32 H11        23.8328   21.0051   62.8234 H         1             0.2108
@<TRIPOS>BOND
     1    1    2 1 
     2    2    7 ar
     3    2    3 ar
     4    3    4 ar
     5    3   22 1 
     6    4    5 ar
     7    4   23 1 
     8    5    6 ar
     9    5   24 1 
    10    6    7 ar
    11    6   25 1 
    12    7    8 1 
    13    8    9 am
    14    8   26 1 
    15    9   10 2 
    16    9   11 1 
    17   11   12 2 
    18   11   20 1 
    19   12   13 1 
    20   12   27 1 
    21   13   14 2 
    22   13   28 1 
    23   14   15 1 
    24   14   29 1 
    25   15   19 1 
    26   15   16 2 
    27   16   17 1 
    28   16   30 1 
    29   17   18 2 
    30   17   31 1 
    31   18   19 1 
    32   18   32 1 
    33   20   21 3 
##########                 Name:            E36574307
##########          Protonation:                   75
##########               SMILES:   c1ccc(cc1)c2c([nH]nc2N)C(=O)N[C@H]3CC[C@@H](C3)[NH3+]
##########            Long Name:   S,3S)-3-[(3-amino-4-phenyl-1H-pyrazole-5-carbonyl)amino]cyclopentyl]ammonium
##########          FlexRecCode: 1
##########               Number:                  173
##########   Ligand Source File: /raidb/db2/rgc/leads-emolecules-300/leads-emolecules-2a-0000313.db2.gz
##########           GlobalRank: 4384
##########                 Rank:                    1
##########               Setnum:                   17
##########             Matchnum:                 3247
##########                Cloud:                    1
##########        Electrostatic:           -36.013489
##########        Van der Waals:           -18.291552
##########  Ligand Polar Desolv:            15.486424
########## Ligand Apolar Desolv:            -1.124299
##########      Internal Energy:             0.000000
##########      Receptor Energy: 0.0
########## Receptor Desolvation:             0.000000
########## Receptor Hydrophobic:             0.000000
##########         Total Energy: -39.94
##########        Ligand Charge:             1.000000
##########            Arbitrary:    +999.9990
##########     heavy atom count:   21
##########           pose count:    1
##########        Ligand Energy:             0.000000
# num electro vdwattr vdwrepu polsolv apolsol rdesolv rhydroe totalscore fullpol fullapo
#   1   -0.55   -3.92    1.90   -3.04    0.61    0.00    0.00      -4.99   -4.60    0.93
#   2    1.33   -2.02    0.34    0.79   -1.42    0.00    0.00      -0.99    1.27   -2.29
#   3   -0.83   -2.38    0.70   -1.11    0.76    0.00    0.00      -2.86   -1.86    1.28
#   4   -0.40   -1.85    0.79   -1.81    0.34    0.00    0.00      -2.92   -3.82    0.71
#   5    0.19   -1.62    0.39    0.29   -0.35    0.00    0.00      -1.10    0.64   -0.77
#   6    2.37   -2.08    0.80    2.57   -0.30    0.00    0.00       3.37    5.64   -0.65
#   7   -6.59   -5.50   12.08   -1.55    0.17    0.00    0.00      -1.39   -3.22    0.36
#   8    1.70   -1.49    0.18   -4.99    0.91    0.00    0.00      -3.70  -11.40    2.07
#   9   -0.92   -1.53    0.33    1.05   -0.14    0.00    0.00      -1.21    2.32   -0.31
#  10    1.19   -1.30    0.33   -1.15   -0.10    0.00    0.00      -1.03   -3.14   -0.27
#  11    2.01   -0.57    0.03   -1.23   -0.09    0.00    0.00       0.15   -3.67   -0.27
#  12   -0.47   -0.79    0.06    1.31   -0.15    0.00    0.00      -0.05    3.06   -0.36
#  13   17.88   -2.35    1.68  -10.51    0.31    0.00    0.00       7.01  -24.30    0.72
#  14  -15.17   -0.08    0.01    7.75    0.24    0.00    0.00      -7.25   19.38    0.59
#  15  -13.42   -0.07    0.01    8.30    0.25    0.00    0.00      -4.94   19.74    0.59
#  16  -11.73   -0.03    0.00    6.44    0.20    0.00    0.00      -5.12   18.18    0.57
#  17    2.06   -1.63    0.65   -1.87   -0.12    0.00    0.00      -0.92   -4.17   -0.27
#  18   -0.87   -1.58    0.22   -0.61   -0.22    0.00    0.00      -3.07   -1.07   -0.39
#  19   -0.15   -1.77    0.25    0.00   -0.18    0.00    0.00      -1.85    0.00   -0.32
#  20   -1.00   -2.96    1.37   -0.23   -0.23    0.00    0.00      -3.04   -0.39   -0.40
#  21   -1.74   -3.29    1.19   -0.35   -0.28    0.00    0.00      -4.46   -0.58   -0.47
#  22   -2.14   -2.94    1.37   -0.39   -0.28    0.00    0.00      -4.38   -0.64   -0.47
#  23   -1.87   -2.76    0.93   -0.37   -0.31    0.00    0.00      -4.37   -0.56   -0.47
#  24   -1.25   -2.35    0.63   -0.29   -0.27    0.00    0.00      -3.53   -0.48   -0.45
#  25    0.48   -0.09    0.01    1.52    0.34    0.00    0.00       2.26    2.60    0.58
#  26   -1.06   -0.11    0.01    1.85    0.39    0.00    0.00       1.09    2.80    0.59
#  27   -0.64   -0.02    0.00    2.05    0.11    0.00    0.00       1.49    6.84    0.37
#  28   -1.41   -0.02    0.00    2.06    0.12    0.00    0.00       0.75    8.62    0.50
#  29   -0.41   -1.01    0.56    0.70   -0.14    0.00    0.00      -0.29    1.33   -0.26
#  30   -0.79   -0.67    0.35   -0.09   -0.09    0.00    0.00      -1.29   -0.28   -0.28
#  31   -0.68   -0.65    0.54    0.33   -0.08    0.00    0.00      -0.54    1.11   -0.28
#  32   -1.49   -0.15    0.01    0.46   -0.04    0.00    0.00      -1.21    3.29   -0.27
#  33   -1.26   -0.13    0.00    0.35   -0.04    0.00    0.00      -1.08    2.64   -0.28
#  34   -2.64   -0.24    0.02    1.98   -0.08    0.00    0.00      -0.96    6.73   -0.28
#  35   -1.11   -0.66    0.82    1.24   -0.09    0.00    0.00       0.20    3.46   -0.26
#  36   -1.84   -1.63    4.68    2.05   -0.12    0.00    0.00       3.13    4.66   -0.27
#  37    0.98   -1.23    2.10    0.25   -0.15    0.00    0.00       1.95    0.48   -0.28
#  38    0.97   -1.16    0.98    0.57   -0.17    0.00    0.00       1.19    0.94   -0.28
#  39    2.37   -0.62    0.27    0.44   -0.13    0.00    0.00       2.33    0.93   -0.28
#  40    1.81   -0.96    1.24    0.46   -0.15    0.00    0.00       2.41    0.86   -0.28
#  41    1.09   -0.80    0.91    0.24   -0.14    0.00    0.00       1.29    0.47   -0.28
@<TRIPOS>MOLECULE
E36574307
   41    43     0     0     0
SMALL
USER_CHARGES


@<TRIPOS>ATOM
      1 N1         19.6027   12.2595   63.7670 N.pl3     1            -0.8355
      2 C1         20.4604   13.3507   63.5973 C.2       1             0.3539
      3 N2         21.7303   13.2843   63.2771 N.2       1            -0.3136
      4 N3         22.2522   14.5805   63.1997 N.pl3     1            -0.4601
      5 C2         21.2473   15.4615   63.4870 C.2       1             0.0484
      6 C3         21.3521   16.9260   63.5202 C.2       1             0.5905
      7 O1         20.3762   17.5998   63.7918 O.2       1            -0.4890
      8 N4         22.5295   17.5236   63.2499 N.am      1            -0.7289
      9 C4         22.6342   18.9844   63.2830 C.3       1             0.1435
     10 C5         24.0293   19.4528   62.8336 C.3       1            -0.1388
     11 C6         23.9957   19.1882   61.3354 C.3       1            -0.1432
     12 C7         22.5486   19.3473   60.9136 C.3       1             0.0257
     13 N5         22.4159   20.4705   59.9762 N.4       1            -0.6357
     14 H1         22.9625   20.2844   59.1487 H         1             0.4388
     15 H2         21.4462   20.5826   59.7207 H         1             0.4369
     16 H3         22.7477   21.3161   60.4154 H         1             0.4348
     17 C8         21.7586   19.6316   62.1903 C.3       1            -0.1567
     18 C9         20.1040   14.7072   63.7356 C.2       1            -0.1398
     19 C10        18.7633   15.2325   64.0840 C.ar      1            -0.0138
     20 C11        17.8408   15.5192   63.0782 C.ar      1            -0.0811
     21 C12        16.5934   16.0078   63.4089 C.ar      1            -0.1191
     22 C13        16.2574   16.2137   64.7350 C.ar      1            -0.1140
     23 C14        17.1684   15.9311   65.7372 C.ar      1            -0.1189
     24 C15        18.4168   15.4367   65.4193 C.ar      1            -0.1061
     25 H4         18.6722   12.4056   63.9989 H         1             0.4148
     26 H5         19.9373   11.3567   63.6490 H         1             0.4096
     27 H6         23.1681   14.8134   62.9808 H         1             0.4403
     28 H7         23.3077   16.9864   63.0334 H         1             0.4002
     29 H8         22.3838   19.3726   64.2702 H         1             0.1116
     30 H9         24.1662   20.5148   63.0370 H         1             0.0973
     31 H10        24.8100   18.8634   63.3143 H         1             0.0884
     32 H11        24.6216   19.9106   60.8117 H         1             0.0942
     33 H12        24.3396   18.1755   61.1246 H         1             0.1051
     34 H13        22.1899   18.4285   60.4496 H         1             0.1507
     35 H14        20.7772   19.1591   62.1510 H         1             0.1103
     36 H15        21.6644   20.7048   62.3556 H         1             0.0981
     37 H16        18.1021   15.3595   62.0424 H         1             0.1134
     38 H17        15.8780   16.2303   62.6310 H         1             0.1216
     39 H18        15.2802   16.5970   64.9890 H         1             0.1224
     40 H19        16.9004   16.0940   66.7707 H         1             0.1241
     41 H20        19.1256   15.2127   66.2027 H         1             0.1197
@<TRIPOS>BOND
     1    1    2 1 
     2    1   25 1 
     3    1   26 1 
     4    2   18 1 
     5    2    3 2 
     6    3    4 1 
     7    4    5 1 
     8    4   27 1 
     9    5    6 1 
    10    5   18 2 
    11    6    7 2 
    12    6    8 am
    13    8    9 1 
    14    8   28 1 
    15    9   17 1 
    16    9   10 1 
    17    9   29 1 
    18   10   11 1 
    19   10   30 1 
    20   10   31 1 
    21   11   12 1 
    22   11   32 1 
    23   11   33 1 
    24   12   13 1 
    25   12   17 1 
    26   12   34 1 
    27   13   14 1 
    28   13   15 1 
    29   13   16 1 
    30   17   35 1 
    31   17   36 1 
    32   18   19 1 
    33   19   24 ar
    34   19   20 ar
    35   20   21 ar
    36   20   37 1 
    37   21   22 ar
    38   21   38 1 
    39   22   23 ar
    40   22   39 1 
    41   23   24 ar
    42   23   40 1 
    43   24   41 1 
##########                 Name:            E32021243
##########          Protonation:                   96
##########               SMILES:   Cc1ccc(cc1)CNC(=O)NCCNc2cc[nH+]cc2
##########            Long Name:   1-(p-tolylmethyl)-3-[2-(pyridin-1-ium-4-ylamino)ethyl]urea
##########          FlexRecCode: 1
##########               Number:                   16
##########   Ligand Source File: /raidb/db2/rgc/leads-emolecules-300/leads-emolecules-2a-0000150.db2.gz
##########           GlobalRank: 4402
##########                 Rank:                    1
##########               Setnum:                  104
##########             Matchnum:                 6379
##########                Cloud:                    1
##########        Electrostatic:           -12.535568
##########        Van der Waals:           -31.934263
##########  Ligand Polar Desolv:             6.931229
########## Ligand Apolar Desolv:            -2.395948
##########      Internal Energy:             0.000000
##########      Receptor Energy: 0.0
########## Receptor Desolvation:             0.000000
########## Receptor Hydrophobic:             0.000000
##########         Total Energy: -39.93
##########        Ligand Charge:             1.000000
##########            Arbitrary:    +999.9990
##########     heavy atom count:   21
##########           pose count:    1
##########        Ligand Energy:             0.000000
# num electro vdwattr vdwrepu polsolv apolsol rdesolv rhydroe totalscore fullpol fullapo
#   1   -0.96   -2.70    1.85   -0.56   -0.13    0.00    0.00      -2.50   -0.83   -0.20
#   2   -0.66   -2.80    0.80   -0.38   -0.26    0.00    0.00      -3.31   -0.59   -0.41
#   3   -1.76   -2.51    0.73   -0.55   -0.28    0.00    0.00      -4.37   -0.89   -0.45
#   4   -1.52   -2.60    0.74   -0.41   -0.27    0.00    0.00      -4.06   -0.69   -0.45
#   5   -1.57   -2.12    0.45   -0.47   -0.23    0.00    0.00      -3.94   -0.75   -0.37
#   6    2.11   -1.17    0.16    0.69   -0.25    0.00    0.00       1.54    1.21   -0.44
#   7   -4.33   -1.89    0.33   -3.72    1.44    0.00    0.00      -8.17   -6.18    2.39
#   8    3.01   -1.77    0.29    2.84   -1.28    0.00    0.00       3.11    4.77   -2.14
#   9   -2.40   -2.24    0.34   -0.49    0.25    0.00    0.00      -4.55   -0.78    0.40
#  10   -2.65   -1.63    0.32   -4.50    1.17    0.00    0.00      -7.28   -9.11    2.38
#  11    0.03   -1.11    0.24    0.79   -0.20    0.00    0.00      -0.25    1.72   -0.43
#  12   -0.17   -1.03    0.19    1.01   -0.15    0.00    0.00      -0.15    2.53   -0.38
#  13    3.70   -1.10    0.14   -5.65    0.65    0.00    0.00      -2.25  -14.83    1.70
#  14   -3.18   -0.93    0.05    2.43   -0.27    0.00    0.00      -1.90    6.40   -0.72
#  15    3.47   -1.12    0.08   -2.64   -0.19    0.00    0.00      -0.39   -6.21   -0.44
#  16   -3.67   -1.55    0.32    2.05   -0.38    0.00    0.00      -3.22    5.31   -0.97
#  17    7.63   -1.23    0.23   -4.42    0.31    0.00    0.00       2.52  -13.79    0.97
#  18   -6.13   -0.02    0.00    2.96    0.12    0.00    0.00      -3.07   15.07    0.59
#  19   -1.52   -1.15    0.17    1.42   -0.28    0.00    0.00      -1.35    5.02   -0.97
#  20    1.82   -1.30    0.27   -1.83   -0.14    0.00    0.00      -1.17   -5.90   -0.46
#  21   -0.63   -2.70    0.62   -0.44   -0.29    0.00    0.00      -3.43   -0.69   -0.45
#  22   -0.46   -3.50    1.12   -0.59   -0.30    0.00    0.00      -3.73   -0.89   -0.45
#  23    0.74   -0.55    0.19    0.38   -0.16    0.00    0.00       0.59    0.65   -0.28
#  24    0.34   -1.09    0.88    0.32   -0.17    0.00    0.00       0.27    0.51   -0.28
#  25    0.56   -1.57    2.74    0.32   -0.18    0.00    0.00       1.87    0.51   -0.28
#  26    1.68   -0.45    0.08    0.49   -0.13    0.00    0.00       1.67    1.04   -0.28
#  27    1.93   -0.64    0.20    0.62   -0.15    0.00    0.00       1.95    1.13   -0.28
#  28    0.92   -0.41    0.08    0.10   -0.12    0.00    0.00       0.56    0.22   -0.28
#  29    1.07   -0.45    0.15    0.08   -0.10    0.00    0.00       0.75    0.22   -0.28
#  30    1.63   -0.05    0.00    2.46    0.28    0.00    0.00       4.33    5.02    0.57
#  31    2.17   -0.02    0.00    2.34    0.18    0.00    0.00       4.66    7.50    0.57
#  32    0.14   -0.65    0.66    0.20   -0.11    0.00    0.00       0.24    0.50   -0.28
#  33   -0.19   -0.39    0.21    0.16   -0.09    0.00    0.00      -0.31    0.49   -0.28
#  34    0.03   -0.56    0.22    0.99   -0.11    0.00    0.00       0.58    2.52   -0.28
#  35   -0.33   -0.29    0.05    0.60   -0.06    0.00    0.00      -0.03    2.53   -0.27
#  36   -2.27   -0.03    0.00    1.96    0.13    0.00    0.00      -0.20    8.32    0.57
#  37   -2.93   -0.23    0.01    1.54   -0.08    0.00    0.00      -1.69    4.82   -0.24
#  38   -5.84   -0.53    0.24    3.01   -0.10    0.00    0.00      -3.22    8.10   -0.28
#  39   -0.92   -0.21    0.03    1.49   -0.05    0.00    0.00       0.34    7.66   -0.28
#  40   -1.59   -0.58    0.72    1.01   -0.07    0.00    0.00      -0.51    4.20   -0.28
#  41    0.55   -0.70    0.39    0.63   -0.16    0.00    0.00       0.72    1.13   -0.28
#  42   -0.42   -1.03    0.39    0.67   -0.18    0.00    0.00      -0.57    1.03   -0.28
@<TRIPOS>MOLECULE
E32021243
   42    43     0     0     0
SMALL
USER_CHARGES


@<TRIPOS>ATOM
      1 C1         14.0233   15.1327   67.2960 C.3       1            -0.1216
      2 C2         15.2577   15.1881   66.4333 C.ar      1            -0.0711
      3 C3         15.2181   15.8320   65.2107 C.ar      1            -0.1230
      4 C4         16.3504   15.8829   64.4193 C.ar      1            -0.0943
      5 C5         17.5223   15.2900   64.8506 C.ar      1            -0.1235
      6 C6         18.7565   15.3450   63.9877 C.3       1             0.1811
      7 N1         19.3867   14.0230   63.9517 N.am      1            -0.7363
      8 C7         20.7213   13.9165   63.7973 C.2       1             0.7066
      9 O1         21.2441   12.8192   63.7674 O.2       1            -0.5818
     10 N2         21.4763   15.0264   63.6758 N.am      1            -0.7482
     11 C8         22.9270   14.9106   63.5079 C.3       1             0.1272
     12 C9         23.5403   16.3076   63.3948 C.3       1             0.0881
     13 N3         22.9685   16.9999   62.2373 N.pl3     1            -0.6805
     14 C10        23.3758   18.2946   61.9297 C.ar      1             0.3175
     15 C11        22.5869   19.1219   61.1305 C.ar      1            -0.2116
     16 C12        23.0261   20.3985   60.8493 C.ar      1             0.1695
     17 N4         24.1755   20.8391   61.3260 N.ar      1            -0.4938
     18 H1         24.4590   21.7416   61.1118 H         1             0.4483
     19 C13        24.9498   20.0873   62.0858 C.ar      1             0.1658
     20 C14        24.5805   18.8007   62.4173 C.ar      1            -0.2039
     21 C15        17.5623   14.6473   66.0738 C.ar      1            -0.0943
     22 C16        16.4310   14.5997   66.8669 C.ar      1            -0.1230
     23 H2         13.2045   15.6462   66.7921 H         1             0.0738
     24 H3         13.7477   14.0925   67.4696 H         1             0.0698
     25 H4         14.2248   15.6193   68.2503 H         1             0.0698
     26 H5         14.3025   16.2952   64.8738 H         1             0.1257
     27 H6         16.3192   16.3854   63.4639 H         1             0.1240
     28 H7         18.4797   15.6432   62.9764 H         1             0.0777
     29 H8         19.4571   16.0703   64.4015 H         1             0.0777
     30 H9         18.8432   13.2242   64.0391 H         1             0.3989
     31 H10        21.0591   15.9017   63.6997 H         1             0.3995
     32 H11        23.3525   14.3955   64.3691 H         1             0.0803
     33 H12        23.1439   14.3442   62.6022 H         1             0.0802
     34 H13        23.3236   16.8740   64.3005 H         1             0.0920
     35 H14        24.6197   16.2215   63.2698 H         1             0.0919
     36 H15        22.3059   16.5559   61.6852 H         1             0.4256
     37 H16        21.6457   18.7675   60.7370 H         1             0.1763
     38 H17        22.4220   21.0460   60.2311 H         1             0.2050
     39 H18        25.8828   20.4861   62.4558 H         1             0.2057
     40 H19        25.2168   18.1923   63.0429 H         1             0.1791
     41 H20        18.4779   14.1844   66.4109 H         1             0.1240
     42 H21        16.4631   14.1004   67.8240 H         1             0.1257
@<TRIPOS>BOND
     1    1    2 1 
     2    1   23 1 
     3    1   24 1 
     4    1   25 1 
     5    2   22 ar
     6    2    3 ar
     7    3    4 ar
     8    3   26 1 
     9    4    5 ar
    10    4   27 1 
    11    5    6 1 
    12    5   21 ar
    13    6    7 1 
    14    6   28 1 
    15    6   29 1 
    16    7    8 am
    17    7   30 1 
    18    8    9 2 
    19    8   10 am
    20   10   11 1 
    21   10   31 1 
    22   11   12 1 
    23   11   32 1 
    24   11   33 1 
    25   12   13 1 
    26   12   34 1 
    27   12   35 1 
    28   13   14 1 
    29   13   36 1 
    30   14   20 ar
    31   14   15 ar
    32   15   16 ar
    33   15   37 1 
    34   16   17 ar
    35   16   38 1 
    36   17   18 1 
    37   17   19 ar
    38   19   20 ar
    39   19   39 1 
    40   20   40 1 
    41   21   22 ar
    42   21   41 1 
    43   22   42 1 
##########                 Name:            E46645373
##########          Protonation:                   36
##########               SMILES:   CCCCSc1nc(cc(n1)NC[C@@]2(CC[NH2+]C2)O)N
##########            Long Name:   [[(6-amino-2-butylsulfanyl-pyrimidin-4-yl)amino]methyl]pyrrolidin-1-ium-3-ol
##########          FlexRecCode: 1
##########               Number:                  296
##########   Ligand Source File: /raidb/db2/rgc/leads-emolecules-300/leads-emolecules-lt300-2i-0000195.db2.gz
##########           GlobalRank: 4402
##########                 Rank:                    1
##########               Setnum:                   42
##########             Matchnum:                  182
##########                Cloud:                    1
##########        Electrostatic:           -24.659258
##########        Van der Waals:           -24.999357
##########  Ligand Polar Desolv:             9.524622
########## Ligand Apolar Desolv:             0.203323
##########      Internal Energy:             0.000000
##########      Receptor Energy: 0.0
########## Receptor Desolvation:             0.000000
########## Receptor Hydrophobic:             0.000000
##########         Total Energy: -39.93
##########        Ligand Charge:             1.000000
##########            Arbitrary:    +999.9990
##########     heavy atom count:   20
##########           pose count:    1
##########        Ligand Energy:             0.000000
# num electro vdwattr vdwrepu polsolv apolsol rdesolv rhydroe totalscore fullpol fullapo
#   1    0.47   -0.28    0.02   -0.14   -0.03    0.00    0.00       0.04   -0.89   -0.19
#   2    0.36   -0.38    0.02   -0.15   -0.06    0.00    0.00      -0.21   -0.66   -0.25
#   3    0.40   -0.53    0.05   -0.15   -0.06    0.00    0.00      -0.29   -0.54   -0.22
#   4    0.42   -0.81    0.12   -0.11   -0.04    0.00    0.00      -0.42   -0.27   -0.10
#   5   -0.01   -3.93    2.16   -0.14   -0.34    0.00    0.00      -2.27   -0.33   -0.79
#   6   -0.30   -2.18    0.80    0.42   -0.96    0.00    0.00      -2.23    0.88   -2.02
#   7   -0.97   -2.65    0.74   -1.38    1.04    0.00    0.00      -3.22   -2.49    1.88
#   8    1.63   -1.98    0.40    1.87   -1.27    0.00    0.00       0.65    3.13   -2.13
#   9   -2.46   -2.68    0.49   -5.74    0.60    0.00    0.00      -9.80   -8.81    0.92
#  10   -1.63   -1.63    0.37   -2.05   -0.23    0.00    0.00      -5.17   -3.90   -0.43
#  11    0.95   -1.66    0.37    1.91   -0.91    0.00    0.00       0.66    4.38   -2.09
#  12   -1.19   -2.01    0.63   -5.08    0.72    0.00    0.00      -6.94  -11.17    1.58
#  13   -0.53   -1.00    0.11    0.77   -0.12    0.00    0.00      -0.76    1.80   -0.28
#  14   -1.32   -0.83    0.07    1.24   -0.03    0.00    0.00      -0.86    2.78   -0.06
#  15    6.60   -2.88    2.12   -5.77    0.79    0.00    0.00       0.86  -12.15    1.66
#  16    2.57   -0.99    0.18   -2.30   -0.11    0.00    0.00      -0.64   -5.19   -0.24
#  17   -0.02   -1.75    0.64    0.42   -0.25    0.00    0.00      -0.95    0.90   -0.54
#  18   12.49   -1.58    0.94   -6.29    0.38    0.00    0.00       5.93  -17.07    1.02
#  19   -8.59   -0.02    0.00    3.82    0.12    0.00    0.00      -4.66   18.31    0.57
#  20  -13.96   -0.07    0.01    5.71    0.18    0.00    0.00      -8.13   18.43    0.58
#  21   -0.10   -0.81    0.11    0.33   -0.19    0.00    0.00      -0.66    0.88   -0.51
#  22    0.13   -1.73    0.37   -1.33    0.89    0.00    0.00      -1.65   -3.06    2.06
#  23   -0.13   -0.06    0.00    0.02   -0.02    0.00    0.00      -0.19    0.31   -0.28
#  24   -0.31   -0.11    0.01    0.03   -0.03    0.00    0.00      -0.41    0.30   -0.28
#  25   -0.05   -0.08    0.01    0.02   -0.02    0.00    0.00      -0.12    0.29   -0.28
#  26   -0.29   -0.17    0.01    0.08   -0.05    0.00    0.00      -0.42    0.40   -0.28
#  27   -0.06   -0.11    0.01    0.05   -0.03    0.00    0.00      -0.15    0.44   -0.28
#  28   -0.20   -0.17    0.02    0.07   -0.04    0.00    0.00      -0.33    0.42   -0.28
#  29   -0.39   -0.22    0.04    0.07   -0.05    0.00    0.00      -0.55    0.38   -0.28
#  30   -0.46   -0.29    0.04    0.11   -0.10    0.00    0.00      -0.70    0.32   -0.28
#  31   -0.27   -0.29    0.04    0.10   -0.08    0.00    0.00      -0.49    0.37   -0.28
#  32    1.13   -0.07    0.00    2.64    0.38    0.00    0.00       4.08    4.14    0.59
#  33    1.21   -0.04    0.00    3.46    0.32    0.00    0.00       4.95    6.40    0.59
#  34    1.03   -0.27    0.02    1.10   -0.08    0.00    0.00       1.81    3.45   -0.24
#  35    2.98   -0.05    0.00    2.55    0.19    0.00    0.00       5.67    6.69    0.50
#  36   -0.38   -0.56    0.13    0.71   -0.12    0.00    0.00      -0.23    1.58   -0.27
#  37   -0.49   -0.21    0.01    0.77   -0.06    0.00    0.00       0.03    3.49   -0.27
#  38   -6.63   -0.04    0.00    3.16    0.45    0.00    0.00      -3.07    7.68    1.09
#  39   -1.19   -0.38    0.19    0.77   -0.07    0.00    0.00      -0.68    2.82   -0.27
#  40   -1.51   -0.35    0.06    0.70   -0.11    0.00    0.00      -1.20    1.84   -0.28
#  41   -4.15   -1.02    0.96    2.85   -0.14    0.00    0.00      -1.50    5.63   -0.28
#  42   -4.31   -0.82    0.78    1.80   -0.12    0.00    0.00      -2.68    4.05   -0.28
#  43   -3.35   -0.46    0.30    1.33   -0.08    0.00    0.00      -2.25    4.48   -0.27
#  44   -1.75   -0.21    0.02    1.25   -0.05    0.00    0.00      -0.74    6.55   -0.27
@<TRIPOS>MOLECULE
E46645373
   44    45     0     0     0
SMALL
USER_CHARGES


@<TRIPOS>ATOM
      1 C1         27.6468   17.6604   61.3001 C.3       1            -0.1549
      2 C2         27.0843   16.2594   61.0513 C.3       1            -0.1166
      3 C3         26.5126   15.7003   62.3556 C.3       1            -0.1083
      4 C4         25.9502   14.2994   62.1067 C.3       1            -0.1038
      5 S1         25.2722   13.6364   63.6533 S.3       1             0.0042
      6 C5         23.5897   14.1591   63.6399 C.ar      1             0.3874
      7 N1         22.6299   13.2458   63.6695 N.ar      1            -0.6098
      8 C6         21.3481   13.6037   63.6605 C.ar      1             0.4811
      9 N2         20.3503   12.6420   63.6922 N.pl3     1            -0.8329
     10 C7         21.0227   14.9566   63.6196 C.ar      1            -0.3706
     11 C8         22.0576   15.8864   63.5893 C.ar      1             0.4727
     12 N3         21.7809   17.2441   63.5481 N.pl3     1            -0.7213
     13 C9         22.8021   18.1861   63.0833 C.3       1             0.1041
     14 C10        22.2805   18.9408   61.8589 C.3       1             0.1098
     15 O1         21.0679   19.6258   62.1789 O.3       1            -0.5375
     16 C11        22.0527   17.9633   60.6830 C.3       1            -0.1819
     17 C12        22.5350   18.7782   59.4567 C.3       1             0.0006
     18 N4         23.7080   19.5220   59.9829 N.4       1            -0.5144
     19 H1         24.5186   18.9215   60.0071 H         1             0.4339
     20 H2         23.8917   20.3322   59.4104 H         1             0.4399
     21 C13        23.3401   19.9374   61.3540 C.3       1             0.0059
     22 N5         23.3169   15.4552   63.6059 N.ar      1            -0.5883
     23 H3         28.0540   18.0587   60.3708 H         1             0.0562
     24 H4         26.8506   18.3134   61.6573 H         1             0.0584
     25 H5         28.4365   17.6070   62.0495 H         1             0.0564
     26 H6         26.2946   16.3128   60.3019 H         1             0.0653
     27 H7         27.8806   15.6064   60.6942 H         1             0.0651
     28 H8         27.3023   15.6470   63.1051 H         1             0.0746
     29 H9         25.7162   16.3533   62.7127 H         1             0.0748
     30 H10        25.1604   14.3527   61.3573 H         1             0.0944
     31 H11        26.7464   13.6462   61.7497 H         1             0.0942
     32 H12        20.5842   11.7012   63.7210 H         1             0.4110
     33 H13        19.4180   12.9100   63.6854 H         1             0.4119
     34 H14        19.9913   15.2769   63.6110 H         1             0.1334
     35 H15        20.9111   17.5705   63.8271 H         1             0.4060
     36 H16        23.0297   18.8965   63.8782 H         1             0.0897
     37 H17        23.7058   17.6390   62.8152 H         1             0.0816
     38 H18        20.6901   20.1225   61.4401 H         1             0.4022
     39 H19        22.6537   17.0625   60.8083 H         1             0.1123
     40 H20        20.9960   17.7131   60.5885 H         1             0.1262
     41 H21        22.8332   18.1131   58.6461 H         1             0.1433
     42 H22        21.7595   19.4681   59.1242 H         1             0.1414
     43 H23        22.9244   20.9450   61.3376 H         1             0.1534
     44 H24        24.2176   19.9054   61.9998 H         1             0.1489
@<TRIPOS>BOND
     1    1    2 1 
     2    1   23 1 
     3    1   24 1 
     4    1   25 1 
     5    2    3 1 
     6    2   26 1 
     7    2   27 1 
     8    3    4 1 
     9    3   28 1 
    10    3   29 1 
    11    4    5 1 
    12    4   30 1 
    13    4   31 1 
    14    5    6 1 
    15    6   22 ar
    16    6    7 ar
    17    7    8 ar
    18    8    9 1 
    19    8   10 ar
    20    9   32 1 
    21    9   33 1 
    22   10   11 ar
    23   10   34 1 
    24   11   12 1 
    25   11   22 ar
    26   12   13 1 
    27   12   35 1 
    28   13   14 1 
    29   13   36 1 
    30   13   37 1 
    31   14   21 1 
    32   14   15 1 
    33   14   16 1 
    34   15   38 1 
    35   16   17 1 
    36   16   39 1 
    37   16   40 1 
    38   17   18 1 
    39   17   41 1 
    40   17   42 1 
    41   18   19 1 
    42   18   20 1 
    43   18   21 1 
    44   21   43 1 
    45   21   44 1 
##########                 Name:            E45747082
##########          Protonation:                   85
##########               SMILES:   Cc1cccc(c1)C(=O)Nc2cc(ccc2F)NC(=O)C
##########            Long Name:   N-(5-acetamido-2-fluoro-phenyl)-3-methyl-benzamide
##########          FlexRecCode: 1
##########               Number:                  155
##########   Ligand Source File: /raidb/db2/rgc/leads-emolecules-300/leads-emolecules-2b-0000079.db2.gz
##########           GlobalRank: 4423
##########                 Rank:                    1
##########               Setnum:                    4
##########             Matchnum:                  631
##########                Cloud:                    1
##########        Electrostatic:            -9.075026
##########        Van der Waals:           -32.942047
##########  Ligand Polar Desolv:             5.688091
########## Ligand Apolar Desolv:            -3.594297
##########      Internal Energy:             0.000000
##########      Receptor Energy: 0.0
########## Receptor Desolvation:             0.000000
########## Receptor Hydrophobic:             0.000000
##########         Total Energy: -39.92
##########        Ligand Charge:             0.000000
##########            Arbitrary:    +999.9990
##########     heavy atom count:   21
##########           pose count:    1
##########        Ligand Energy:             0.000000
# num electro vdwattr vdwrepu polsolv apolsol rdesolv rhydroe totalscore fullpol fullapo
#   1    1.53   -1.18    0.21   -0.21   -0.08    0.00    0.00       0.27   -0.54   -0.21
#   2   -2.04   -1.73    0.26   -0.40   -0.28    0.00    0.00      -4.19   -0.93   -0.65
#   3    0.16   -3.62    1.52    2.10    0.17    0.00    0.00       0.32    4.30    0.34
#   4    2.29   -1.18    0.13    0.16    0.68    0.00    0.00       2.07    0.38    1.65
#   5    0.16   -1.54    0.47   -0.21   -0.29    0.00    0.00      -1.41   -0.50   -0.68
#   6    0.05   -1.85    1.00    0.23   -0.18    0.00    0.00      -0.76    0.50   -0.40
#   7   -0.22   -2.22    0.56    0.17   -0.26    0.00    0.00      -1.97    0.31   -0.47
#   8    0.25   -2.11    0.45   -0.09   -0.21    0.00    0.00      -1.72   -0.15   -0.34
#   9   -0.38   -2.18    1.20    0.26   -0.30    0.00    0.00      -1.40    0.40   -0.46
#  10    0.85   -1.74    0.34   -0.26   -0.39    0.00    0.00      -1.20   -0.44   -0.67
#  11   -5.30   -1.98    0.36    0.75    0.93    0.00    0.00      -5.24    1.30    1.60
#  12    7.39   -2.01    0.38   -1.39   -0.38    0.00    0.00       3.99   -2.31   -0.64
#  13   -8.97   -2.29    0.82    2.44    0.19    0.00    0.00      -7.82    4.28    0.33
#  14   -1.74   -2.52    0.92    0.22   -0.26    0.00    0.00      -3.38    0.35   -0.41
#  15   -0.75   -3.05    1.55    0.14   -0.25    0.00    0.00      -2.37    0.23   -0.43
#  16   -1.05   -2.67    1.54    0.01   -0.25    0.00    0.00      -2.41    0.02   -0.40
#  17   -1.04   -2.15    0.92   -0.12   -0.12    0.00    0.00      -2.51   -0.19   -0.20
#  18   -0.85   -2.56    0.86   -0.12   -0.29    0.00    0.00      -2.97   -0.18   -0.45
#  19   -0.71   -3.34    1.04   -0.21   -0.30    0.00    0.00      -3.52   -0.32   -0.47
#  20   -0.66   -2.86    0.77   -0.07   -0.29    0.00    0.00      -3.10   -0.11   -0.44
#  21   -0.83   -1.78    0.46    0.23   -0.19    0.00    0.00      -2.11    0.49   -0.40
#  22   -1.33   -0.19    0.01    0.04   -0.05    0.00    0.00      -1.52    0.20   -0.28
#  23   -0.85   -0.88    0.56    0.28   -0.11    0.00    0.00      -1.00    0.68   -0.28
#  24   -0.72   -0.37    0.10    0.23   -0.07    0.00    0.00      -0.83    0.89   -0.28
#  25   -3.04   -0.02    0.00    0.30    0.12    0.00    0.00      -2.63    1.43    0.59
#  26   -0.48   -0.28    0.06   -0.20   -0.06    0.00    0.00      -0.96   -0.70   -0.22
#  27    0.15   -0.75    0.39   -0.04   -0.14    0.00    0.00      -0.40   -0.09   -0.28
#  28    2.07   -0.04    0.00    0.23    0.21    0.00    0.00       2.47    0.49    0.45
#  29    1.43   -0.78    0.35   -0.28   -0.15    0.00    0.00       0.57   -0.49   -0.26
#  30    0.63   -0.48    0.15    0.08   -0.13    0.00    0.00       0.25    0.16   -0.28
#  31    0.31   -1.57    3.35    0.18   -0.16    0.00    0.00       2.11    0.32   -0.28
#  32    0.81   -0.78    0.40    0.04   -0.14    0.00    0.00       0.33    0.07   -0.28
#  33    1.14   -0.51    0.13    0.40   -0.14    0.00    0.00       1.02    0.77   -0.28
#  34    0.02   -1.10    0.84    0.62   -0.18    0.00    0.00       0.20    0.99   -0.28
#  35    0.47   -0.59    0.10    0.40   -0.13    0.00    0.00       0.25    0.68   -0.22
#  36    2.18   -0.54    0.31   -0.23   -0.08    0.00    0.00       1.65   -0.62   -0.22
@<TRIPOS>MOLECULE
E45747082
   36    37     0     0     0
SMALL
USER_CHARGES


@<TRIPOS>ATOM
      1 C1         23.5898   19.2459   62.8208 C.3       1            -0.1736
      2 C2         23.0809   17.9391   63.3724 C.2       1             0.5123
      3 O1         23.2994   17.6422   64.5279 O.2       1            -0.5235
      4 N1         22.3830   17.1000   62.5815 N.am      1            -0.6730
      5 C3         21.9102   15.8857   63.0940 C.ar      1             0.1530
      6 C4         22.7009   14.7461   63.0217 C.ar      1            -0.1055
      7 C5         22.2358   13.5470   63.5269 C.ar      1            -0.1142
      8 C6         20.9815   13.4775   64.1057 C.ar      1             0.0594
      9 F1         20.5295   12.3039   64.5989 F         1            -0.1364
     10 C7         20.1855   14.6158   64.1806 C.ar      1             0.1331
     11 N2         18.9165   14.5461   64.7666 N.am      1            -0.6659
     12 C8         17.9345   15.3686   64.3474 C.2       1             0.5646
     13 O2         18.1512   16.1711   63.4603 O.2       1            -0.5137
     14 C9         16.5941   15.2949   64.9661 C.ar      1            -0.1356
     15 C10        15.4647   15.6775   64.2401 C.ar      1            -0.0565
     16 C11        14.2169   15.6059   64.8233 C.ar      1            -0.0919
     17 C12        12.9966   16.0184   64.0411 C.3       1            -0.1176
     18 C13        14.0829   15.1556   66.1249 C.ar      1            -0.0894
     19 C14        15.1980   14.7754   66.8501 C.ar      1            -0.1207
     20 C15        16.4515   14.8371   66.2769 C.ar      1            -0.0909
     21 C16        20.6539   15.8216   63.6793 C.ar      1            -0.1213
     22 H1         23.2982   19.3368   61.7744 H         1             0.0984
     23 H2         23.1625   20.0715   63.3900 H         1             0.0935
     24 H3         24.6765   19.2747   62.8990 H         1             0.0931
     25 H4         22.2083   17.3374   61.6573 H         1             0.4145
     26 H5         23.6805   14.7971   62.5696 H         1             0.1509
     27 H6         22.8528   12.6623   63.4695 H         1             0.1459
     28 H7         18.7436   13.9058   65.4743 H         1             0.4148
     29 H8         15.5680   16.0291   63.2241 H         1             0.1377
     30 H9         12.1086   15.8944   64.6609 H         1             0.0748
     31 H10        13.0906   17.0635   63.7459 H         1             0.0705
     32 H11        12.9082   15.3960   63.1507 H         1             0.0704
     33 H12        13.1035   15.1011   66.5768 H         1             0.1302
     34 H13        15.0865   14.4252   67.8657 H         1             0.1326
     35 H14        17.3207   14.5357   66.8425 H         1             0.1258
     36 H15        20.0397   16.7080   63.7404 H         1             0.1540
@<TRIPOS>BOND
     1    1    2 1 
     2    1   22 1 
     3    1   23 1 
     4    1   24 1 
     5    2    3 2 
     6    2    4 am
     7    4    5 1 
     8    4   25 1 
     9    5   21 ar
    10    5    6 ar
    11    6    7 ar
    12    6   26 1 
    13    7    8 ar
    14    7   27 1 
    15    8    9 1 
    16    8   10 ar
    17   10   11 1 
    18   10   21 ar
    19   11   12 am
    20   11   28 1 
    21   12   13 2 
    22   12   14 1 
    23   14   20 ar
    24   14   15 ar
    25   15   16 ar
    26   15   29 1 
    27   16   17 1 
    28   16   18 ar
    29   17   30 1 
    30   17   31 1 
    31   17   32 1 
    32   18   19 ar
    33   18   33 1 
    34   19   20 ar
    35   19   34 1 
    36   20   35 1 
    37   21   36 1 
##########                 Name:             E9860640
##########          Protonation:                   98
##########               SMILES:   c1ccc(cc1)c2c/c(=N\C(=O)c3cccc(c3)Cl)/o[nH]2
##########            Long Name:   (NE)-3-chloro-N-(3-phenyl-2H-isoxazol-5-ylidene)benzamide
##########          FlexRecCode: 1
##########               Number:                  224
##########   Ligand Source File: /raidb/db2/rgc/leads-emolecules-300/leads-emolecules-lt300-2j-0000054.db2.gz
##########           GlobalRank: 4423
##########                 Rank:                    1
##########               Setnum:                  109
##########             Matchnum:                 5527
##########                Cloud:                    1
##########        Electrostatic:            -8.893636
##########        Van der Waals:           -35.252773
##########  Ligand Polar Desolv:             6.664495
########## Ligand Apolar Desolv:            -2.434853
##########      Internal Energy:             0.000000
##########      Receptor Energy: 0.0
########## Receptor Desolvation:             0.000000
########## Receptor Hydrophobic:             0.000000
##########         Total Energy: -39.92
##########        Ligand Charge:             0.000000
##########            Arbitrary:    +999.9990
##########     heavy atom count:   21
##########           pose count:    1
##########        Ligand Energy:             0.000000
# num electro vdwattr vdwrepu polsolv apolsol rdesolv rhydroe totalscore fullpol fullapo
#   1   -0.80   -5.07    2.53    0.18   -0.64    0.00    0.00      -3.80    0.28   -0.98
#   2   -0.66   -2.48    0.68    0.17   -0.18    0.00    0.00      -2.46    0.27   -0.29
#   3   -0.83   -2.53    0.81    0.34   -0.27    0.00    0.00      -2.48    0.55   -0.44
#   4   -1.06   -2.34    0.65    0.63   -0.26    0.00    0.00      -2.38    0.98   -0.41
#   5   -0.22   -3.25    0.99    0.14   -0.30    0.00    0.00      -2.65    0.22   -0.46
#   6   -0.19   -4.37    1.73    0.03   -0.32    0.00    0.00      -3.12    0.05   -0.47
#   7   -0.65   -3.35    1.22    0.07   -0.30    0.00    0.00      -3.02    0.10   -0.46
#   8    5.45   -1.91    0.39   -3.09   -0.38    0.00    0.00       0.46   -5.21   -0.65
#   9   -7.82   -1.74    0.34    3.80    0.18    0.00    0.00      -5.24    7.03    0.34
#  10   -3.37   -2.52    1.20    3.40    2.49    0.00    0.00       1.20    5.68    4.16
#  11    1.76   -1.89    0.30   -1.55   -0.43    0.00    0.00      -1.81   -2.54   -0.70
#  12   -0.09   -2.58    0.59    0.05   -0.08    0.00    0.00      -2.12    0.07   -0.13
#  13   -1.03   -3.82    2.03   -0.80    0.42    0.00    0.00      -3.19   -1.36    0.72
#  14    0.21   -1.98    0.60    0.06   -0.38    0.00    0.00      -1.49    0.12   -0.75
#  15   -1.29   -1.70    0.35    1.03   -0.24    0.00    0.00      -1.85    1.83   -0.42
#  16    0.10   -1.71    0.39   -0.10   -0.18    0.00    0.00      -1.50   -0.22   -0.41
#  17    0.17   -1.42    0.24   -0.03   -0.18    0.00    0.00      -1.22   -0.09   -0.46
#  18    0.66   -2.15    1.46   -0.12   -0.15    0.00    0.00      -0.30   -0.38   -0.47
#  19    0.40   -2.17    1.63   -0.12   -0.14    0.00    0.00      -0.39   -0.40   -0.47
#  20    0.26   -1.63    0.48   -0.27   -0.17    0.00    0.00      -1.32   -0.76   -0.47
#  21    0.25   -2.11    0.71   -0.19   -0.19    0.00    0.00      -1.53   -0.44   -0.45
#  22    2.16   -0.52    0.10   -0.55   -0.14    0.00    0.00       1.06   -1.04   -0.26
#  23    0.37   -0.97    0.92   -0.30   -0.16    0.00    0.00      -0.15   -0.50   -0.27
#  24   -0.77   -1.59    1.61    0.45   -0.19    0.00    0.00      -0.49    0.67   -0.28
#  25    0.97   -0.85    0.45    0.18   -0.16    0.00    0.00       0.58    0.31   -0.28
#  26   -1.15   -0.18    0.05    2.36    0.31    0.00    0.00       1.39    4.11    0.54
#  27    1.18   -0.37    0.12   -0.43   -0.06    0.00    0.00       0.43   -1.35   -0.18
#  28   -0.33   -0.21    0.01   -0.03   -0.06    0.00    0.00      -0.62   -0.12   -0.24
#  29   -1.13   -0.46    0.38    0.14   -0.06    0.00    0.00      -1.13    0.62   -0.28
#  30   -0.69   -0.45    0.48    0.23   -0.06    0.00    0.00      -0.48    1.16   -0.28
#  31   -0.16   -0.23    0.04    0.31   -0.06    0.00    0.00      -0.10    1.48   -0.28
#  32   -0.60   -0.65    0.48    0.69   -0.10    0.00    0.00      -0.19    1.68   -0.25
@<TRIPOS>MOLECULE
E9860640
   32    34     0     0     0
SMALL
USER_CHARGES


@<TRIPOS>ATOM
      1 Cl1        13.6431   16.4380   65.1841 Cl        1            -0.0649
      2 C1         15.1150   15.6700   65.6909 C.ar      1            -0.0501
      3 C2         16.1887   15.5976   64.8250 C.ar      1            -0.0577
      4 C3         17.3702   14.9807   65.2343 C.ar      1            -0.1009
      5 C4         17.4602   14.4401   66.5169 C.ar      1            -0.0545
      6 C5         16.3813   14.5182   67.3734 C.ar      1            -0.1234
      7 C6         15.2129   15.1361   66.9644 C.ar      1            -0.0849
      8 C7         18.5254   14.8993   64.3102 C.2       1             0.5428
      9 O1         19.0314   15.9202   63.8751 O.2       1            -0.5422
     10 N1         19.0118   13.7107   63.9546 N.2       1            -0.6203
     11 C8         20.3109   13.5800   63.6597 C.2       1             0.4311
     12 O2         20.9035   12.4731   63.1827 O.3       1            -0.0247
     13 N2         22.2802   12.7555   63.0077 N.pl3     1            -0.5361
     14 C9         22.4930   14.0426   63.3873 C.2       1             0.2567
     15 C10        21.2843   14.5727   63.7887 C.2       1            -0.3304
     16 C11        23.7907   14.7520   63.3678 C.ar      1            -0.0696
     17 C12        23.8312   16.1331   63.1716 C.ar      1            -0.0645
     18 C13        25.0449   16.7890   63.1550 C.ar      1            -0.1177
     19 C14        26.2200   16.0806   63.3325 C.ar      1            -0.0872
     20 C15        26.1866   14.7112   63.5277 C.ar      1            -0.1192
     21 C16        24.9791   14.0442   63.5517 C.ar      1            -0.0920
     22 H1         16.1131   16.0177   63.8329 H         1             0.1441
     23 H2         18.3729   13.9608   66.8391 H         1             0.1470
     24 H3         16.4503   14.0995   68.3666 H         1             0.1388
     25 H4         14.3725   15.1984   67.6399 H         1             0.1371
     26 H5         22.9519   12.1393   62.6759 H         1             0.4686
     27 H6         21.1202   15.5794   64.1438 H         1             0.2040
     28 H7         22.9146   16.6872   63.0326 H         1             0.1408
     29 H8         25.0778   17.8577   63.0027 H         1             0.1375
     30 H9         27.1675   16.5986   63.3183 H         1             0.1334
     31 H10        27.1073   14.1639   63.6651 H         1             0.1345
     32 H11        24.9541   12.9758   63.7082 H         1             0.1243
@<TRIPOS>BOND
     1    1    2 1 
     2    2    7 ar
     3    2    3 ar
     4    3    4 ar
     5    3   22 1 
     6    4    5 ar
     7    4    8 1 
     8    5    6 ar
     9    5   23 1 
    10    6    7 ar
    11    6   24 1 
    12    7   25 1 
    13    8    9 2 
    14    8   10 1 
    15   10   11 2 
    16   11   15 1 
    17   11   12 1 
    18   12   13 1 
    19   13   14 1 
    20   13   26 1 
    21   14   15 2 
    22   14   16 1 
    23   15   27 1 
    24   16   21 ar
    25   16   17 ar
    26   17   18 ar
    27   17   28 1 
    28   18   19 ar
    29   18   29 1 
    30   19   20 ar
    31   19   30 1 
    32   20   21 ar
    33   20   31 1 
    34   21   32 1 
##########                 Name:            E46649255
##########          Protonation:                   62
##########               SMILES:   c1cc2c(cc1C(=O)N3C[C@@H]([C@@H](C3)[NH3+])C4CC4)n[nH]n2
##########            Long Name:   S,4S)-1-(2H-benzotriazole-5-carbonyl)-4-cyclopropyl-pyrrolidin-3-yl]ammonium
##########          FlexRecCode: 1
##########               Number:                    6
##########   Ligand Source File: /raidb/db2/rgc/leads-emolecules-300/leads-emolecules-lt300-1f-0000099.db2.gz
##########           GlobalRank: 4446
##########                 Rank:                    1
##########               Setnum:                   17
##########             Matchnum:                 1053
##########                Cloud:                    1
##########        Electrostatic:           -25.705685
##########        Van der Waals:           -24.516811
##########  Ligand Polar Desolv:            10.302473
########## Ligand Apolar Desolv:             0.009482
##########      Internal Energy:             0.000000
##########      Receptor Energy: 0.0
########## Receptor Desolvation:             0.000000
########## Receptor Hydrophobic:             0.000000
##########         Total Energy: -39.91
##########        Ligand Charge:             1.000000
##########            Arbitrary:    +999.9990
##########     heavy atom count:   20
##########           pose count:    1
##########        Ligand Energy:             0.000000
# num electro vdwattr vdwrepu polsolv apolsol rdesolv rhydroe totalscore fullpol fullapo
#   1   13.55   -1.41    0.84   -7.75    0.20    0.00    0.00       5.44  -24.21    0.63
#   2  -13.19   -0.10    0.03    5.08    0.14    0.00    0.00      -8.04   19.45    0.52
#   3   -5.84   -0.01    0.00    2.84    0.07    0.00    0.00      -2.95   19.01    0.45
#   4  -10.76   -0.03    0.00    6.30    0.19    0.00    0.00      -4.29   20.18    0.60
#   5   -0.32   -0.72    0.10    1.05   -0.13    0.00    0.00      -0.02    3.03   -0.38
#   6   -1.15   -0.91    0.14    0.62   -0.19    0.00    0.00      -1.50    1.64   -0.50
#   7    4.74   -1.15    0.09   -4.55    0.82    0.00    0.00      -0.06  -12.07    2.17
#   8   -0.73   -0.54    0.04    0.41   -0.10    0.00    0.00      -0.92    1.42   -0.34
#   9    1.06   -0.51    0.03   -0.56   -0.06    0.00    0.00      -0.03   -2.04   -0.21
#  10    1.54   -0.38    0.02   -0.60   -0.05    0.00    0.00       0.54   -2.98   -0.24
#  11    0.90   -0.31    0.01   -0.73   -0.08    0.00    0.00      -0.20   -4.17   -0.43
#  12    0.48   -0.25    0.01   -0.74   -0.06    0.00    0.00      -0.56   -5.06   -0.43
#  13   -1.36   -1.96    0.39    3.24   -0.29    0.00    0.00       0.03    7.23   -0.64
#  14    0.28   -4.47    3.68   -2.41    0.22    0.00    0.00      -2.70   -4.59    0.42
#  15   -0.08   -1.69    0.35   -0.54   -0.17    0.00    0.00      -2.13   -1.25   -0.40
#  16   -0.11   -1.75    0.47    0.01   -0.16    0.00    0.00      -1.55    0.03   -0.36
#  17    0.04   -1.66    0.34   -0.07   -0.48    0.00    0.00      -1.83   -0.13   -0.84
#  18   -1.21   -1.86    0.27   -1.12    0.74    0.00    0.00      -3.19   -1.84    1.21
#  19   -0.43   -2.92    0.64   -0.76    0.19    0.00    0.00      -3.29   -1.16    0.29
#  20   -1.37   -3.83    1.65   -0.94    0.77    0.00    0.00      -3.72   -1.46    1.19
#  21    0.10   -2.18    0.50   -0.05   -0.48    0.00    0.00      -2.11   -0.09   -0.84
#  22    0.02   -2.22    0.78   -0.34   -0.23    0.00    0.00      -2.00   -0.70   -0.47
#  23    0.04   -1.86    0.56   -0.20   -0.19    0.00    0.00      -1.65   -0.47   -0.44
#  24   -3.65   -0.28    0.04    1.89   -0.08    0.00    0.00      -2.08    6.39   -0.28
#  25   -0.92   -0.40    0.10    1.28   -0.07    0.00    0.00      -0.01    4.65   -0.27
#  26   -1.80   -0.44    0.17    0.68   -0.09    0.00    0.00      -1.48    2.12   -0.27
#  27   -0.66   -0.21    0.05    0.53   -0.04    0.00    0.00      -0.34    3.27   -0.26
#  28   -0.86   -0.19    0.03    0.21   -0.04    0.00    0.00      -0.86    1.10   -0.20
#  29   -1.70   -0.23    0.03    0.57   -0.06    0.00    0.00      -1.40    2.53   -0.27
#  30   -0.58   -0.18    0.03    1.07   -0.03    0.00    0.00       0.31    6.94   -0.21
#  31   -0.87   -0.19    0.03    0.32   -0.05    0.00    0.00      -0.75    1.82   -0.28
#  32   -0.27   -0.06    0.00    0.14   -0.02    0.00    0.00      -0.21    2.62   -0.28
#  33   -0.04   -0.07    0.00    0.10   -0.02    0.00    0.00      -0.03    1.41   -0.28
#  34   -0.31   -0.07    0.00    0.06   -0.02    0.00    0.00      -0.34    0.92   -0.28
#  35    1.45   -0.42    0.14    1.10   -0.06    0.00    0.00       2.21    3.22   -0.19
#  36   -0.89   -0.08    0.00    3.33    0.12    0.00    0.00       2.49    5.17    0.19
#  37   -0.50   -0.56    0.27    0.47   -0.12    0.00    0.00      -0.43    1.15   -0.28
#  38   -0.30   -0.36    0.10    0.38   -0.08    0.00    0.00      -0.26    1.38   -0.28
@<TRIPOS>MOLECULE
E46649255
   38    41     0     0     0
SMALL
USER_CHARGES


@<TRIPOS>ATOM
      1 N1         24.2899   20.7735   60.0809 N.4       1            -0.6299
      2 H1         24.6962   20.6375   59.1674 H         1             0.4418
      3 H2         24.9726   21.1940   60.6935 H         1             0.4333
      4 H3         23.4873   21.3803   60.0051 H         1             0.4379
      5 C1         23.8728   19.4763   60.6296 C.3       1             0.0172
      6 C2         23.4510   19.6057   62.1076 C.3       1             0.0913
      7 N2         23.5688   18.2258   62.5966 N.am      1            -0.6219
      8 C3         24.5675   17.5065   61.8042 C.3       1             0.0869
      9 C4         25.0732   18.5151   60.7626 C.3       1            -0.0850
     10 C5         26.3100   19.2551   61.2761 C.3       1            -0.2075
     11 C6         27.2621   19.8468   60.2348 C.3       1            -0.1696
     12 C7         27.6739   18.6067   61.0306 C.3       1            -0.1498
     13 C8         22.8647   17.7017   63.6193 C.2       1             0.5941
     14 O1         22.4979   18.4147   64.5332 O.2       1            -0.5025
     15 C9         22.5388   16.2613   63.6299 C.ar      1            -0.1076
     16 C10        21.2137   15.8654   63.6440 C.ar      1            -0.0242
     17 C11        20.9064   14.4968   63.6541 C.ar      1             0.0095
     18 N3         19.8035   13.7630   63.6679 N.2       1            -0.2554
     19 N4         20.1333   12.5185   63.6715 N.pl3     1            -0.1802
     20 N5         21.4081   12.3402   63.6610 N.2       1            -0.2597
     21 C12        22.0062   13.5200   63.6493 C.ar      1             0.0399
     22 C13        23.3350   13.9847   63.6344 C.ar      1            -0.0475
     23 C14        23.5829   15.3164   63.6197 C.ar      1            -0.0697
     24 H4         23.0787   19.0337   60.0282 H         1             0.1598
     25 H5         24.1291   20.2668   62.6472 H         1             0.0935
     26 H6         22.4226   19.9582   62.1872 H         1             0.1192
     27 H7         25.3888   17.1774   62.4407 H         1             0.0945
     28 H8         24.1109   16.6495   61.3091 H         1             0.1101
     29 H9         25.2824   18.0213   59.8136 H         1             0.1222
     30 H10        26.1752   19.8069   62.2063 H         1             0.1042
     31 H11        27.0073   19.7089   59.1840 H         1             0.1078
     32 H12        27.7537   20.7883   60.4799 H         1             0.1083
     33 H13        28.4364   18.7323   61.7992 H         1             0.1097
     34 H14        27.6900   17.6528   60.5034 H         1             0.1075
     35 H15        20.4240   16.6022   63.6476 H         1             0.1445
     36 H16        19.4899   11.7927   63.6818 H         1             0.4789
     37 H17        24.1545   13.2815   63.6311 H         1             0.1499
     38 H18        24.6061   15.6619   63.6043 H         1             0.1482
@<TRIPOS>BOND
     1    1    2 1 
     2    1    3 1 
     3    1    4 1 
     4    1    5 1 
     5    5    9 1 
     6    5    6 1 
     7    5   24 1 
     8    6    7 1 
     9    6   25 1 
    10    6   26 1 
    11    7    8 1 
    12    7   13 am
    13    8    9 1 
    14    8   27 1 
    15    8   28 1 
    16    9   10 1 
    17    9   29 1 
    18   10   12 1 
    19   10   11 1 
    20   10   30 1 
    21   11   12 1 
    22   11   31 1 
    23   11   32 1 
    24   12   33 1 
    25   12   34 1 
    26   13   14 2 
    27   13   15 1 
    28   15   23 ar
    29   15   16 ar
    30   16   17 ar
    31   16   35 1 
    32   17   21 ar
    33   17   18 2 
    34   18   19 1 
    35   19   20 1 
    36   19   36 1 
    37   20   21 2 
    38   21   22 ar
    39   22   23 ar
    40   22   37 1 
    41   23   38 1 
##########                 Name:            E32404515
##########          Protonation:                   17
##########               SMILES:   CC(C)Oc1cc(nc([nH+]1)N)NCc2cccnc2
##########            Long Name:   6-isopropoxy-N4-(3-pyridylmethyl)pyrimidin-1-ium-2,4-diamine
##########          FlexRecCode: 1
##########               Number:                   18
##########   Ligand Source File: /raidb/db2/rgc/leads-emolecules-300/leads-lt300-emolecules-1b-0000090.db2.gz
##########           GlobalRank: 4446
##########                 Rank:                    1
##########               Setnum:                  179
##########             Matchnum:                  255
##########                Cloud:                    1
##########        Electrostatic:           -19.239632
##########        Van der Waals:           -23.040173
##########  Ligand Polar Desolv:             3.974446
########## Ligand Apolar Desolv:            -1.605029
##########      Internal Energy:             0.000000
##########      Receptor Energy: 0.0
########## Receptor Desolvation:             0.000000
########## Receptor Hydrophobic:             0.000000
##########         Total Energy: -39.91
##########        Ligand Charge:             1.000000
##########            Arbitrary:    +999.9990
##########     heavy atom count:   19
##########           pose count:    1
##########        Ligand Energy:             0.000000
# num electro vdwattr vdwrepu polsolv apolsol rdesolv rhydroe totalscore fullpol fullapo
#   1   -0.09   -1.04    0.50   -1.34   -0.06    0.00    0.00      -2.03   -4.01   -0.18
#   2   -0.08   -0.66    0.07    0.35   -0.04    0.00    0.00      -0.35    1.21   -0.13
#   3    0.10   -0.70    0.10   -0.87   -0.06    0.00    0.00      -1.43   -2.95   -0.19
#   4    1.96   -2.40    1.17   -2.29    0.33    0.00    0.00      -1.23   -5.80    0.84
#   5   -5.51   -1.84    0.63    3.52   -0.23    0.00    0.00      -3.43    9.81   -0.63
#   6    2.25   -1.12    0.18   -2.29   -0.15    0.00    0.00      -1.13   -6.69   -0.43
#   7   -3.84   -1.06    0.18    3.35   -0.67    0.00    0.00      -2.03   10.47   -2.09
#   8    2.47   -1.16    0.14   -4.77    0.64    0.00    0.00      -2.68  -12.84    1.73
#   9    0.00   -1.11    0.22    1.39   -0.16    0.00    0.00       0.34    3.25   -0.38
#  10   -0.37   -1.77    0.44   -1.03   -0.18    0.00    0.00      -2.92   -2.11   -0.37
#  11   -0.22   -1.63    0.33   -0.42   -0.26    0.00    0.00      -2.20   -0.75   -0.46
#  12   -0.71   -1.96    0.31   -1.24   -0.30    0.00    0.00      -3.89   -2.01   -0.48
#  13    0.45   -3.50    1.17    0.21   -0.65    0.00    0.00      -2.32    0.31   -0.98
#  14   -2.97   -5.08    4.07   -2.31    1.28    0.00    0.00      -5.01   -3.70    2.05
#  15    0.12   -2.63    0.90    0.50   -0.51    0.00    0.00      -1.63    0.92   -0.95
#  16    5.80   -1.00    0.10   -4.46    0.74    0.00    0.00       1.19  -12.39    2.07
#  17  -12.03   -1.26    0.17    5.69   -1.83    0.00    0.00      -9.26   15.32   -4.94
#  18   17.71   -1.52    0.21   -8.34    0.42    0.00    0.00       8.47  -18.91    0.95
#  19   13.35   -2.58    1.66   -5.30    0.54    0.00    0.00       7.66  -14.20    1.44
#  20  -15.38   -0.16    0.06    4.80    0.14    0.00    0.00     -10.55   12.48    0.37
#  21    0.05   -0.55    0.83    0.52   -0.06    0.00    0.00       0.78    2.07   -0.25
#  22    0.03   -0.58    0.40    0.32   -0.11    0.00    0.00       0.06    0.82   -0.28
#  23    0.08   -0.12    0.01    0.27   -0.04    0.00    0.00       0.20    2.13   -0.28
#  24   -0.25   -0.09    0.00    0.29   -0.02    0.00    0.00      -0.05    3.53   -0.22
#  25   -0.26   -0.20    0.02    0.15   -0.06    0.00    0.00      -0.33    0.76   -0.28
#  26    0.03   -0.09    0.00    0.10   -0.02    0.00    0.00       0.01    1.09   -0.28
#  27   -0.04   -0.61    0.58    0.61   -0.09    0.00    0.00       0.45    1.88   -0.28
#  28   -0.79   -0.19    0.01    1.03   -0.05    0.00    0.00       0.02    4.63   -0.24
#  29   -1.58   -0.02    0.00    1.76    0.14    0.00    0.00       0.31    7.54    0.58
#  30    0.22   -0.84    1.01    1.11   -0.11    0.00    0.00       1.39    2.78   -0.27
#  31   -0.02   -0.25    0.02    0.84   -0.08    0.00    0.00       0.52    2.98   -0.27
#  32    1.08   -0.28    0.03    1.01   -0.09    0.00    0.00       1.76    3.25   -0.28
#  33    0.73   -0.49    0.22    0.92   -0.13    0.00    0.00       1.25    1.96   -0.28
#  34   -0.14   -1.34    1.41    0.75   -0.18    0.00    0.00       0.50    1.14   -0.28
#  35   -0.42   -0.55    0.24    1.02   -0.12    0.00    0.00       0.17    2.43   -0.28
#  36   -8.22   -0.02    0.00    3.32    0.18    0.00    0.00      -4.73   10.68    0.59
#  37  -12.76   -0.04    0.00    4.78    0.23    0.00    0.00      -7.79   12.48    0.59
@<TRIPOS>MOLECULE
E32404515
   37    38     0     0     0
SMALL
USER_CHARGES


@<TRIPOS>ATOM
      1 C1         28.2896   16.1423   58.6775 C.3       1            -0.1929
      2 C2         27.5293   17.4196   59.0402 C.3       1             0.0578
      3 C3         28.1895   18.6180   58.3554 C.3       1            -0.1539
      4 O1         26.1738   17.3078   58.6021 O.3       1            -0.2629
      5 C4         25.2110   17.3926   59.5525 C.ar      1             0.4416
      6 C5         25.1739   16.4801   60.5996 C.ar      1            -0.3063
      7 C6         24.1672   16.6058   61.5536 C.ar      1             0.5349
      8 N1         24.0911   15.7188   62.6158 N.pl3     1            -0.6538
      9 C7         23.0279   15.8602   63.6136 C.3       1             0.1561
     10 C8         22.1914   14.6069   63.6375 C.ar      1            -0.1886
     11 C9         20.8072   14.6871   63.6596 C.ar      1            -0.0477
     12 C10        20.0783   13.5081   63.6812 C.ar      1            -0.1715
     13 C11        20.7508   12.3004   63.6800 C.ar      1             0.1243
     14 N2         22.0686   12.2622   63.6591 N.ar      1            -0.4817
     15 C12        22.7939   13.3634   63.6321 C.ar      1             0.1286
     16 N3         23.2792   17.5896   61.4315 N.ar      1            -0.5808
     17 C13        23.3463   18.4407   60.4193 C.ar      1             0.6817
     18 N4         22.4058   19.4517   60.3253 N.pl3     1            -0.7910
     19 N5         24.2936   18.3531   59.4975 N.ar      1            -0.6141
     20 H1         24.3159   18.9956   58.7712 H         1             0.4355
     21 H2         27.8193   15.2886   59.1654 H         1             0.0566
     22 H3         28.2674   16.0008   57.5969 H         1             0.0901
     23 H4         29.3235   16.2276   59.0117 H         1             0.0987
     24 H5         27.5515   17.5611   60.1209 H         1             0.0796
     25 H6         27.6478   19.5278   58.6139 H         1             0.0833
     26 H7         29.2234   18.7033   58.6897 H         1             0.0778
     27 H8         28.1673   18.4765   57.2748 H         1             0.0975
     28 H9         25.9085   15.6916   60.6720 H         1             0.1892
     29 H10        24.7420   15.0042   62.6985 H         1             0.4272
     30 H11        23.4710   16.0201   64.5966 H         1             0.1014
     31 H12        22.3988   16.7121   63.3558 H         1             0.0997
     32 H13        20.3088   15.6452   63.6603 H         1             0.1395
     33 H14        18.9987   13.5328   63.6990 H         1             0.1448
     34 H15        20.1903   11.3774   63.6968 H         1             0.1651
     35 H16        23.8714   13.2924   63.6101 H         1             0.1586
     36 H17        21.7091   19.5297   60.9957 H         1             0.4469
     37 H18        22.4433   20.0820   59.5889 H         1             0.4288
@<TRIPOS>BOND
     1    1    2 1 
     2    1   21 1 
     3    1   22 1 
     4    1   23 1 
     5    2    3 1 
     6    2    4 1 
     7    2   24 1 
     8    3   25 1 
     9    3   26 1 
    10    3   27 1 
    11    4    5 1 
    12    5   19 ar
    13    5    6 ar
    14    6    7 ar
    15    6   28 1 
    16    7    8 1 
    17    7   16 ar
    18    8    9 1 
    19    8   29 1 
    20    9   10 1 
    21    9   30 1 
    22    9   31 1 
    23   10   15 ar
    24   10   11 ar
    25   11   12 ar
    26   11   32 1 
    27   12   13 ar
    28   12   33 1 
    29   13   14 ar
    30   13   34 1 
    31   14   15 ar
    32   15   35 1 
    33   16   17 ar
    34   17   18 1 
    35   17   19 ar
    36   18   36 1 
    37   18   37 1 
    38   19   20 1 
##########                 Name:            E36669992
##########          Protonation:                   70
##########               SMILES:   c1cc(c(cc1F)C#N)CN2CC[NH+](CC2)CCO
##########            Long Name:   5-fluoro-2-[[4-(2-hydroxyethyl)piperazin-4-ium-1-yl]methyl]benzonitrile
##########          FlexRecCode: 1
##########               Number:                  346
##########   Ligand Source File: /raidb/db2/rgc/leads-emolecules-300/leads-emolecules-3-bw-0000015.db2.gz
##########           GlobalRank: 4466
##########                 Rank:                    1
##########               Setnum:                  104
##########             Matchnum:                 4248
##########                Cloud:                    1
##########        Electrostatic:           -23.472633
##########        Van der Waals:           -22.914793
##########  Ligand Polar Desolv:             7.777240
########## Ligand Apolar Desolv:            -1.285586
##########      Internal Energy:             0.000000
##########      Receptor Energy: 0.0
########## Receptor Desolvation:             0.000000
########## Receptor Hydrophobic:             0.000000
##########         Total Energy: -39.9
##########        Ligand Charge:             1.000000
##########            Arbitrary:    +999.9990
##########     heavy atom count:   19
##########           pose count:    1
##########        Ligand Energy:             0.000000
# num electro vdwattr vdwrepu polsolv apolsol rdesolv rhydroe totalscore fullpol fullapo
#   1    5.14   -1.91    0.85   -4.96    0.57    0.00    0.00      -0.30  -14.52    1.68
#   2   -0.35   -0.50    0.05    0.26   -0.04    0.00    0.00      -0.58    1.03   -0.14
#   3    0.18   -0.47    0.05   -0.03   -0.07    0.00    0.00      -0.35   -0.14   -0.32
#   4    8.15   -1.45    0.89   -3.38    0.14    0.00    0.00       4.34  -10.53    0.43
#   5  -15.50   -0.15    0.06    4.52    0.17    0.00    0.00     -10.90   13.73    0.52
#   6    0.04   -0.81    0.10    0.18   -0.15    0.00    0.00      -0.64    0.50   -0.42
#   7   -0.32   -0.93    0.14    0.20   -0.15    0.00    0.00      -1.05    0.53   -0.39
#   8    4.44   -1.03    0.06   -5.15    1.20    0.00    0.00      -0.47  -12.99    3.04
#   9   -0.20   -1.26    0.23    0.81   -0.15    0.00    0.00      -0.57    1.82   -0.33
#  10   -0.06   -1.69    0.36   -0.10   -0.14    0.00    0.00      -1.63   -0.22   -0.33
#  11   -0.01   -1.84    0.52   -0.04   -0.18    0.00    0.00      -1.54   -0.09   -0.40
#  12   -0.03   -2.23    0.71   -0.70   -0.23    0.00    0.00      -2.47   -1.37   -0.45
#  13    0.36   -2.08    0.45    0.22   -0.20    0.00    0.00      -1.26    0.37   -0.34
#  14   -0.65   -1.96    0.61   -0.80   -0.31    0.00    0.00      -3.12   -1.22   -0.48
#  15   -0.57   -1.63    0.32   -0.96   -0.26    0.00    0.00      -3.11   -1.67   -0.46
#  16   -0.42   -1.77    0.47   -0.46   -0.19    0.00    0.00      -2.37   -1.02   -0.42
#  17   -0.52   -2.21    1.10    1.17   -0.51    0.00    0.00      -0.97    3.06   -1.33
#  18    1.41   -2.45    1.38   -1.14    0.23    0.00    0.00      -0.57   -3.48    0.71
#  19   -0.20   -0.62    0.06    0.10   -0.12    0.00    0.00      -0.78    0.32   -0.38
#  20    0.12   -1.12    0.35    0.05   -0.15    0.00    0.00      -0.75    0.13   -0.41
#  21   -8.45   -0.13    0.02    3.95    0.49    0.00    0.00      -4.12    9.92    1.24
#  22   -0.47   -0.15    0.01    0.54   -0.04    0.00    0.00      -0.12    2.97   -0.23
#  23   -0.32   -0.07    0.00    0.11   -0.02    0.00    0.00      -0.30    1.79   -0.28
#  24   -1.22   -0.13    0.01    0.61   -0.02    0.00    0.00      -0.74    5.01   -0.15
#  25   -1.39   -0.11    0.01    0.41   -0.03    0.00    0.00      -1.11    4.13   -0.28
#  26   -2.81   -0.24    0.03    1.23   -0.07    0.00    0.00      -1.87    4.81   -0.28
#  27   -3.41   -0.30    0.04    0.99   -0.09    0.00    0.00      -2.77    3.06   -0.28
#  28   -0.57   -0.29    0.04    0.70   -0.05    0.00    0.00      -0.17    2.81   -0.21
#  29   -1.70   -0.72    0.60    0.49   -0.10    0.00    0.00      -1.43    1.34   -0.28
#  30   -0.21   -0.65    0.27    1.17   -0.11    0.00    0.00       0.47    2.91   -0.27
#  31   -0.03   -0.68    0.46    0.50   -0.12    0.00    0.00       0.14    1.08   -0.26
#  32   -0.39   -0.64    0.35    0.45   -0.12    0.00    0.00      -0.34    1.02   -0.28
#  33    0.90   -0.28    0.02    1.03   -0.11    0.00    0.00       1.56    2.65   -0.28
#  34    1.54   -0.44    0.16    1.78   -0.10    0.00    0.00       2.94    5.14   -0.28
#  35   -0.50   -0.14    0.01    0.40   -0.03    0.00    0.00      -0.25    3.24   -0.22
#  36   -0.82   -0.28    0.11    0.56   -0.05    0.00    0.00      -0.49    2.57   -0.24
#  37   -2.75   -0.54    0.32    1.33   -0.11    0.00    0.00      -1.75    3.40   -0.28
#  38   -1.88   -0.44    0.17    1.72   -0.08    0.00    0.00      -0.50    5.19   -0.23
@<TRIPOS>MOLECULE
E36669992
   38    39     0     0     0
SMALL
USER_CHARGES


@<TRIPOS>ATOM
      1 O1         26.7969   18.8597   58.4600 O.3       1            -0.5798
      2 C1         26.7343   18.4203   59.8183 C.3       1             0.0476
      3 C2         25.7342   19.2851   60.5884 C.3       1            -0.0154
      4 N1         24.4059   19.1636   59.9728 N.4       1            -0.3815
      5 H1         24.4504   19.4737   59.0136 H         1             0.4359
      6 C3         23.4461   19.9944   60.7118 C.3       1            -0.0021
      7 C4         23.3922   19.5361   62.1709 C.3       1             0.0257
      8 N2         22.9866   18.1245   62.2233 N.3       1            -0.5359
      9 C5         22.8680   17.6621   63.6126 C.3       1             0.0916
     10 C6         22.4515   16.2138   63.6262 C.ar      1            -0.0646
     11 C7         23.4200   15.2076   63.6263 C.ar      1             0.0300
     12 C8         23.0265   13.8684   63.6394 C.ar      1            -0.1091
     13 C9         21.6824   13.5471   63.6522 C.ar      1             0.1167
     14 F1         21.2987   12.2518   63.6649 F         1            -0.1240
     15 C10        20.7279   14.5515   63.6525 C.ar      1            -0.1232
     16 C11        21.1133   15.8801   63.6444 C.ar      1            -0.0835
     17 C12        24.8107   15.5483   63.6125 C.1       1             0.2518
     18 N3         25.9140   15.8186   63.6015 N.1       1            -0.3936
     19 C13        23.9247   17.2834   61.4666 C.3       1             0.0226
     20 C14        23.9743   17.7602   60.0136 C.3       1            -0.0076
     21 H2         25.9532   18.8071   57.9904 H         1             0.4101
     22 H3         26.4135   17.3791   59.8490 H         1             0.0715
     23 H4         27.7198   18.5106   60.2751 H         1             0.0942
     24 H5         25.6864   18.9500   61.6245 H         1             0.1392
     25 H6         26.0550   20.3263   60.5577 H         1             0.1390
     26 H7         23.7605   21.0372   60.6699 H         1             0.1379
     27 H8         22.4580   19.8945   60.2628 H         1             0.1399
     28 H9         24.3771   19.6487   62.6241 H         1             0.0645
     29 H10        22.6691   20.1428   62.7161 H         1             0.1234
     30 H11        23.8298   17.7682   64.1142 H         1             0.0695
     31 H12        22.1194   18.2604   64.1319 H         1             0.1003
     32 H13        23.7704   13.0854   63.6391 H         1             0.1508
     33 H14        19.6786   14.2960   63.6629 H         1             0.1495
     34 H15        20.3643   16.6581   63.6489 H         1             0.1434
     35 H16        24.9184   17.3588   61.9081 H         1             0.0638
     36 H17        23.5902   16.2465   61.4980 H         1             0.1255
     37 H18        22.9832   17.6717   59.5682 H         1             0.1404
     38 H19        24.6801   17.1463   59.4541 H         1             0.1355
@<TRIPOS>BOND
     1    1    2 1 
     2    1   21 1 
     3    2    3 1 
     4    2   22 1 
     5    2   23 1 
     6    3    4 1 
     7    3   24 1 
     8    3   25 1 
     9    4    5 1 
    10    4   20 1 
    11    4    6 1 
    12    6    7 1 
    13    6   26 1 
    14    6   27 1 
    15    7    8 1 
    16    7   28 1 
    17    7   29 1 
    18    8    9 1 
    19    8   19 1 
    20    9   10 1 
    21    9   30 1 
    22    9   31 1 
    23   10   16 ar
    24   10   11 ar
    25   11   12 ar
    26   11   17 1 
    27   12   13 ar
    28   12   32 1 
    29   13   14 1 
    30   13   15 ar
    31   15   16 ar
    32   15   33 1 
    33   16   34 1 
    34   17   18 3 
    35   19   20 1 
    36   19   35 1 
    37   19   36 1 
    38   20   37 1 
    39   20   38 1 
##########                 Name:            E48306159
##########          Protonation:                   62
##########               SMILES:   c1cc(cc(c1)O)CN2CC[NH+](CC2)CCC(=O)C3CC3
##########            Long Name:   -cyclopropyl-3-[4-[(3-hydroxyphenyl)methyl]piperazin-1-ium-1-yl]propan-1-one
##########          FlexRecCode: 1
##########               Number:                   20
##########   Ligand Source File: /raidb/db2/rgc/leads-emolecules-300/leads-emolecules-3-cu-0000016.db2.gz
##########           GlobalRank: 4466
##########                 Rank:                    1
##########               Setnum:                   97
##########             Matchnum:                 3608
##########                Cloud:                    1
##########        Electrostatic:           -21.699791
##########        Van der Waals:           -24.238239
##########  Ligand Polar Desolv:             7.431535
########## Ligand Apolar Desolv:            -1.390996
##########      Internal Energy:             0.000000
##########      Receptor Energy: 0.0
########## Receptor Desolvation:             0.000000
########## Receptor Hydrophobic:             0.000000
##########         Total Energy: -39.9
##########        Ligand Charge:             1.000000
##########            Arbitrary:    +999.9990
##########     heavy atom count:   21
##########           pose count:    1
##########        Ligand Energy:             0.000000
# num electro vdwattr vdwrepu polsolv apolsol rdesolv rhydroe totalscore fullpol fullapo
#   1   -2.50   -3.21    1.31   -1.73    0.74    0.00    0.00      -5.39   -2.79    1.19
#   2    0.30   -1.96    0.45    0.10   -0.17    0.00    0.00      -1.27    0.18   -0.31
#   3   -0.71   -1.79    0.37   -0.91   -0.27    0.00    0.00      -3.31   -1.55   -0.46
#   4   -0.78   -2.32    1.30   -0.67   -0.23    0.00    0.00      -2.69   -1.39   -0.47
#   5   -0.46   -1.97    0.67   -0.78   -0.17    0.00    0.00      -2.70   -1.72   -0.37
#   6    0.07   -1.40    0.25   -0.32   -0.14    0.00    0.00      -1.54   -0.78   -0.34
#   7   -0.45   -0.71    0.06    0.69   -0.12    0.00    0.00      -0.52    1.92   -0.33
#   8    5.04   -1.25    0.33   -4.43    1.13    0.00    0.00       0.82  -13.30    3.38
#   9   -0.28   -0.68    0.08    0.17   -0.14    0.00    0.00      -0.85    0.54   -0.43
#  10    0.58   -0.46    0.03   -0.25   -0.09    0.00    0.00      -0.20   -1.00   -0.37
#  11    6.56   -0.82    0.11   -3.60    0.09    0.00    0.00       2.34  -11.48    0.28
#  12  -11.23   -0.04    0.00    4.13    0.13    0.00    0.00      -7.00   16.81    0.53
#  13    0.03   -0.61    0.07    0.15   -0.09    0.00    0.00      -0.45    0.53   -0.30
#  14    3.26   -0.94    0.21   -1.62   -0.07    0.00    0.00       0.84   -5.11   -0.23
#  15   -2.77   -1.05    0.19    2.21   -0.09    0.00    0.00      -1.50    7.63   -0.30
#  16   -0.66   -0.77    0.06   -2.05    0.10    0.00    0.00      -3.32   -7.61    0.36
#  17    1.80   -0.66    0.06   -1.10   -0.13    0.00    0.00      -0.03   -3.32   -0.40
#  18    0.47   -0.85    0.09   -0.98   -0.18    0.00    0.00      -1.45   -2.29   -0.43
#  19    2.12   -1.16    0.33   -0.96   -0.17    0.00    0.00       0.16   -2.43   -0.43
#  20    0.90   -0.74    0.07   -0.56   -0.14    0.00    0.00      -0.47   -1.42   -0.35
#  21   -0.46   -0.76    0.08    0.36   -0.18    0.00    0.00      -0.96    0.88   -0.44
#  22    0.06   -1.76    0.62   -0.74   -0.21    0.00    0.00      -2.03   -1.62   -0.46
#  23    0.83   -0.10    0.01    2.12    0.67    0.00    0.00       3.53    3.84    1.22
#  24    0.68   -0.37    0.08    0.21   -0.12    0.00    0.00       0.48    0.49   -0.28
#  25    1.79   -0.57    0.33    0.71   -0.11    0.00    0.00       2.16    1.87   -0.28
#  26    0.32   -0.48    0.23    1.55   -0.10    0.00    0.00       1.51    4.17   -0.27
#  27   -0.58   -0.27    0.03    0.43   -0.07    0.00    0.00      -0.46    1.59   -0.27
#  28   -0.24   -0.20    0.02    0.50   -0.03    0.00    0.00       0.05    2.74   -0.17
#  29   -0.90   -0.15    0.01    0.30   -0.04    0.00    0.00      -0.78    1.67   -0.20
#  30   -1.73   -0.44    0.16    1.11   -0.09    0.00    0.00      -0.99    3.45   -0.28
#  31   -1.10   -0.18    0.03    0.56   -0.03    0.00    0.00      -0.72    3.91   -0.21
#  32   -1.32   -0.11    0.00    0.56   -0.03    0.00    0.00      -0.89    5.64   -0.28
#  33   -1.16   -0.33    0.09    0.82   -0.06    0.00    0.00      -0.64    3.56   -0.28
#  34   -1.08   -0.10    0.00    0.41   -0.03    0.00    0.00      -0.79    4.11   -0.28
#  35   -2.06   -0.36    0.11    1.62   -0.08    0.00    0.00      -0.77    5.96   -0.28
#  36   -3.09   -0.55    0.37    1.91   -0.07    0.00    0.00      -1.43    5.79   -0.21
#  37   -0.77   -0.17    0.01    0.67   -0.05    0.00    0.00      -0.31    3.84   -0.28
#  38    0.16   -0.36    0.08    0.23   -0.09    0.00    0.00       0.01    0.69   -0.28
#  39   -0.23   -0.28    0.03    0.46   -0.09    0.00    0.00      -0.10    1.47   -0.28
#  40   -1.73   -0.36    0.11    0.37   -0.08    0.00    0.00      -1.69    1.28   -0.28
#  41   -2.29   -0.64    0.48    0.18   -0.10    0.00    0.00      -2.38    0.48   -0.27
#  42   -1.40   -0.28    0.03    1.10   -0.06    0.00    0.00      -0.60    4.06   -0.23
#  43   -2.85   -0.33    0.07    2.05   -0.07    0.00    0.00      -1.13    6.62   -0.22
#  44   -2.22   -0.35    0.06    1.39   -0.10    0.00    0.00      -1.22    3.76   -0.28
#  45   -1.15   -0.22    0.02    0.65   -0.07    0.00    0.00      -0.78    2.47   -0.28
#  46   -0.46   -0.33    0.07    0.39   -0.09    0.00    0.00      -0.42    1.20   -0.28
@<TRIPOS>MOLECULE
E48306159
   46    48     0     0     0
SMALL
USER_CHARGES


@<TRIPOS>ATOM
      1 O1         22.0102   12.4929   63.6439 O.3       1            -0.4970
      2 C1         21.8640   13.8441   63.6428 C.ar      1             0.1157
      3 C2         20.7073   14.4182   64.1502 C.ar      1            -0.1360
      4 C3         20.5613   15.7917   64.1484 C.ar      1            -0.0977
      5 C4         21.5666   16.5945   63.6414 C.ar      1            -0.1329
      6 C5         22.7199   16.0248   63.1348 C.ar      1            -0.0798
      7 C6         23.8133   16.9026   62.5825 C.3       1             0.0850
      8 N1         23.5859   17.1241   61.1483 N.3       1            -0.5198
      9 C7         24.8402   17.4652   60.4625 C.3       1             0.0252
     10 C8         25.3522   18.8107   60.9814 C.3       1            -0.0512
     11 N2         24.3415   19.8475   60.7344 N.4       1            -0.3787
     12 H1         24.1555   19.9065   59.7445 H         1             0.4240
     13 C9         24.8407   21.1422   61.2167 C.3       1            -0.0022
     14 C10        24.0609   22.2728   60.5423 C.3       1            -0.1960
     15 C11        24.5729   23.6009   61.0370 C.2       1             0.3943
     16 O2         25.4690   23.6393   61.8455 O.2       1            -0.4427
     17 C12        23.9668   24.8812   60.5226 C.3       1            -0.2336
     18 C13        23.5020   25.9083   61.5569 C.3       1            -0.1432
     19 C14        22.4721   25.1018   60.7634 C.3       1            -0.1455
     20 C15        23.1026   19.5054   61.4455 C.3       1            -0.0570
     21 C16        22.5720   18.1657   60.9306 C.3       1             0.0326
     22 C17        22.8732   14.6517   63.1396 C.ar      1            -0.1203
     23 H2         22.8503   12.1880   63.2744 H         1             0.3973
     24 H3         19.9216   13.7917   64.5461 H         1             0.1343
     25 H4         19.6609   16.2391   64.5429 H         1             0.1315
     26 H5         21.4505   17.6682   63.6409 H         1             0.1165
     27 H6         23.8084   17.8601   63.1033 H         1             0.1008
     28 H7         24.7777   16.4156   62.7265 H         1             0.0483
     29 H8         25.5838   16.6929   60.6590 H         1             0.1295
     30 H9         24.6611   17.5335   59.3894 H         1             0.1066
     31 H10        25.5441   18.7380   62.0518 H         1             0.1302
     32 H11        26.2750   19.0723   60.4638 H         1             0.1408
     33 H12        24.7080   21.2033   62.2968 H         1             0.1342
     34 H13        25.8992   21.2364   60.9746 H         1             0.1384
     35 H14        24.1935   22.2116   59.4621 H         1             0.1242
     36 H15        23.0023   22.1785   60.7842 H         1             0.1219
     37 H16        24.3877   25.2595   59.5911 H         1             0.1298
     38 H17        23.6347   25.6581   62.6095 H         1             0.1046
     39 H18        23.6173   26.9627   61.3060 H         1             0.1125
     40 H19        21.9097   25.6257   59.9905 H         1             0.1118
     41 H20        21.9271   24.3210   61.2939 H         1             0.1074
     42 H21        23.3061   19.4292   62.5137 H         1             0.1303
     43 H22        22.3578   20.2821   61.2720 H         1             0.1396
     44 H23        22.3556   18.2455   59.8652 H         1             0.1076
     45 H24        21.6607   17.9044   61.4685 H         1             0.1269
     46 H25        23.7762   14.2073   62.7478 H         1             0.1320
@<TRIPOS>BOND
     1    1    2 1 
     2    1   23 1 
     3    2   22 ar
     4    2    3 ar
     5    3    4 ar
     6    3   24 1 
     7    4    5 ar
     8    4   25 1 
     9    5    6 ar
    10    5   26 1 
    11    6    7 1 
    12    6   22 ar
    13    7    8 1 
    14    7   27 1 
    15    7   28 1 
    16    8   21 1 
    17    8    9 1 
    18    9   10 1 
    19    9   29 1 
    20    9   30 1 
    21   10   11 1 
    22   10   31 1 
    23   10   32 1 
    24   11   12 1 
    25   11   13 1 
    26   11   20 1 
    27   13   14 1 
    28   13   33 1 
    29   13   34 1 
    30   14   15 1 
    31   14   35 1 
    32   14   36 1 
    33   15   16 2 
    34   15   17 1 
    35   17   19 1 
    36   17   18 1 
    37   17   37 1 
    38   18   19 1 
    39   18   38 1 
    40   18   39 1 
    41   19   40 1 
    42   19   41 1 
    43   20   21 1 
    44   20   42 1 
    45   20   43 1 
    46   21   44 1 
    47   21   45 1 
    48   22   46 1 
##########                 Name:            E42990212
##########          Protonation:                  100
##########               SMILES:   CC[C@H](C)NC(=O)c1c(snn1)c2ccc(cc2)Cl
##########            Long Name:   5-(4-chlorophenyl)-N-[(1S)-1-methylpropyl]thiadiazole-4-carboxamide
##########          FlexRecCode: 1
##########               Number:                  347
##########   Ligand Source File: /raidb/db2/rgc/leads-emolecules-300/leads-emolecules-2h-0000070.db2.gz
##########           GlobalRank: 4496
##########                 Rank:                    1
##########               Setnum:                   22
##########             Matchnum:                 5307
##########                Cloud:                    1
##########        Electrostatic:            -8.151460
##########        Van der Waals:           -31.638689
##########  Ligand Polar Desolv:             3.083274
########## Ligand Apolar Desolv:            -3.184429
##########      Internal Energy:             0.000000
##########      Receptor Energy: 0.0
########## Receptor Desolvation:             0.000000
########## Receptor Hydrophobic:             0.000000
##########         Total Energy: -39.89
##########        Ligand Charge:             0.000000
##########            Arbitrary:    +999.9990
##########     heavy atom count:   19
##########           pose count:    1
##########        Ligand Energy:             0.000000
# num electro vdwattr vdwrepu polsolv apolsol rdesolv rhydroe totalscore fullpol fullapo
#   1    1.63   -0.55    0.04   -0.05   -0.06    0.00    0.00       1.00   -0.18   -0.20
#   2    1.61   -0.62    0.03   -0.10   -0.10    0.00    0.00       0.84   -0.25   -0.24
#   3   -0.73   -0.89    0.08   -0.02   -0.11    0.00    0.00      -1.66   -0.04   -0.25
#   4    0.78   -2.26    1.09    0.01   -0.08    0.00    0.00      -0.46    0.03   -0.19
#   5    0.80   -1.31    0.15    0.39    0.77    0.00    0.00       0.80    0.93    1.84
#   6    2.45   -1.70    0.41   -0.93   -0.29    0.00    0.00      -0.07   -2.13   -0.65
#   7   -5.91   -2.58    1.51    1.53    0.16    0.00    0.00      -5.29    3.25    0.33
#   8   -0.15   -1.66    0.35    0.08   -0.42    0.00    0.00      -1.80    0.15   -0.75
#   9   -0.80   -1.78    0.28    0.08   -0.16    0.00    0.00      -2.38    0.13   -0.27
#  10    1.18   -5.55    2.79    0.55   -0.55    0.00    0.00      -1.58    0.83   -0.83
#  11   -1.21   -3.67    1.52    0.42    0.32    0.00    0.00      -2.62    0.67    0.51
#  12   -0.42   -1.99    0.43    0.38    0.63    0.00    0.00      -0.97    0.70    1.16
#  13   -0.19   -1.94    0.42    0.02   -0.21    0.00    0.00      -1.91    0.03   -0.36
#  14   -0.25   -2.50    0.61    0.06   -0.23    0.00    0.00      -2.31    0.09   -0.37
#  15   -1.13   -2.45    0.49    0.12   -0.30    0.00    0.00      -3.28    0.18   -0.46
#  16   -0.23   -2.54    0.75    0.02   -0.18    0.00    0.00      -2.18    0.03   -0.29
#  17   -1.06   -6.19    4.11    0.06   -0.63    0.00    0.00      -3.71    0.10   -0.99
#  18   -1.77   -2.89    0.85   -0.05   -0.27    0.00    0.00      -4.14   -0.09   -0.46
#  19   -0.97   -2.42    0.72   -0.05   -0.26    0.00    0.00      -2.98   -0.09   -0.45
#  20   -0.83   -0.22    0.02    0.03   -0.07    0.00    0.00      -1.06    0.13   -0.28
#  21   -0.48   -0.14    0.01    0.00   -0.03    0.00    0.00      -0.64    0.01   -0.26
#  22   -0.42   -0.19    0.02    0.00   -0.05    0.00    0.00      -0.64    0.01   -0.28
#  23   -1.14   -0.18    0.01    0.05   -0.05    0.00    0.00      -1.31    0.25   -0.28
#  24   -1.13   -0.24    0.03    0.09   -0.08    0.00    0.00      -1.33    0.32   -0.28
#  25   -0.37   -0.40    0.09   -0.06   -0.10    0.00    0.00      -0.83   -0.15   -0.26
#  26   -0.07   -1.22    0.78    0.02   -0.15    0.00    0.00      -0.64    0.04   -0.28
#  27   -0.51   -0.84    1.13    0.04   -0.09    0.00    0.00      -0.27    0.12   -0.28
#  28   -0.33   -0.83    0.52   -0.04   -0.11    0.00    0.00      -0.79   -0.09   -0.28
#  29   -0.93   -0.02    0.00   -0.02    0.13    0.00    0.00      -0.84   -0.09    0.54
#  30    0.54   -0.82    0.77   -0.16   -0.15    0.00    0.00       0.17   -0.29   -0.27
#  31    1.01   -0.57    0.13   -0.04   -0.16    0.00    0.00       0.36   -0.07   -0.28
#  32    1.62   -0.94    0.61    0.31   -0.17    0.00    0.00       1.43    0.52   -0.28
#  33    1.28   -0.62    0.33    0.36   -0.13    0.00    0.00       1.21    0.77   -0.28
@<TRIPOS>MOLECULE
E42990212
   33    34     0     0     0
SMALL
USER_CHARGES


@<TRIPOS>ATOM
      1 C1         24.3843   17.6392   61.1501 C.3       1            -0.1547
      2 C2         23.0509   18.3319   61.4383 C.3       1            -0.1327
      3 C3         22.6423   18.0681   62.8889 C.3       1             0.1407
      4 C4         23.7166   18.6181   63.8294 C.3       1            -0.1657
      5 N1         22.4994   16.6257   63.1015 N.am      1            -0.7052
      6 C5         21.3144   16.1163   63.4925 C.2       1             0.6010
      7 O1         20.3637   16.8543   63.6689 O.2       1            -0.5140
      8 C6         21.1708   14.6674   63.7061 C.2       1            -0.0372
      9 C7         19.9713   14.0701   64.1051 C.2       1            -0.1463
     10 S1         20.4032   12.4490   64.1818 S.3       1             0.4461
     11 N2         21.9560   12.5581   63.7447 N.2       1            -0.2487
     12 N3         22.1656   13.8081   63.5321 N.2       1            -0.2175
     13 C8         18.6656   14.7005   64.3867 C.ar      1            -0.0216
     14 C9         18.0887   14.5827   65.6528 C.ar      1            -0.0341
     15 C10        16.8694   15.1736   65.9097 C.ar      1            -0.1097
     16 C11        16.2170   15.8825   64.9148 C.ar      1            -0.0140
     17 Cl1        14.6822   16.6230   65.2458 Cl        1            -0.0608
     18 C12        16.7842   16.0034   63.6569 C.ar      1            -0.1120
     19 C13        18.0059   15.4218   63.3896 C.ar      1            -0.0776
     20 H1         24.6755   17.8271   60.1167 H         1             0.0586
     21 H2         25.1496   18.0309   61.8202 H         1             0.0545
     22 H3         24.2778   16.5659   61.3082 H         1             0.0561
     23 H4         23.1575   19.4051   61.2802 H         1             0.0701
     24 H5         22.2857   17.9401   60.7684 H         1             0.0821
     25 H6         21.6924   18.5616   63.0944 H         1             0.0926
     26 H7         23.4255   18.4303   64.8629 H         1             0.0584
     27 H8         24.6665   18.1247   63.6240 H         1             0.0691
     28 H9         23.8230   19.6915   63.6712 H         1             0.0616
     29 H10        23.2575   16.0372   62.9607 H         1             0.4090
     30 H11        18.5962   14.0296   66.4293 H         1             0.1330
     31 H12        16.4222   15.0831   66.8884 H         1             0.1407
     32 H13        16.2707   16.5574   62.8852 H         1             0.1421
     33 H14        18.4493   15.5205   62.4098 H         1             0.1362
@<TRIPOS>BOND
     1    1    2 1 
     2    1   20 1 
     3    1   21 1 
     4    1   22 1 
     5    2    3 1 
     6    2   23 1 
     7    2   24 1 
     8    3    4 1 
     9    3    5 1 
    10    3   25 1 
    11    4   26 1 
    12    4   27 1 
    13    4   28 1 
    14    5    6 am
    15    5   29 1 
    16    6    7 2 
    17    6    8 1 
    18    8   12 1 
    19    8    9 2 
    20    9   10 1 
    21    9   13 1 
    22   10   11 1 
    23   11   12 2 
    24   13   19 ar
    25   13   14 ar
    26   14   15 ar
    27   14   30 1 
    28   15   16 ar
    29   15   31 1 
    30   16   17 1 
    31   16   18 ar
    32   18   19 ar
    33   18   32 1 
    34   19   33 1 
##########                 Name:            E46400668
##########          Protonation:                   93
##########               SMILES:   c1ccc(cc1)/C(=N/O)/COC(=O)c2cccc(c2)N
##########            Long Name:   [(2Z)-2-hydroxyimino-2-phenyl-ethyl]
##########          FlexRecCode: 1
##########               Number:                  699
##########   Ligand Source File: /raidb/db2/rgc/leads-emolecules-300/leads-emolecules-3-cq-0000008.db2.gz
##########           GlobalRank: 4496
##########                 Rank:                    1
##########               Setnum:                  167
##########             Matchnum:                 3999
##########                Cloud:                    1
##########        Electrostatic:            -7.943332
##########        Van der Waals:           -32.831402
##########  Ligand Polar Desolv:             4.392742
########## Ligand Apolar Desolv:            -3.503609
##########      Internal Energy:             0.000000
##########      Receptor Energy: 0.0
########## Receptor Desolvation:             0.000000
########## Receptor Hydrophobic:             0.000000
##########         Total Energy: -39.89
##########        Ligand Charge:             0.000000
##########            Arbitrary:    +999.9990
##########     heavy atom count:   20
##########           pose count:    1
##########        Ligand Energy:             0.000000
# num electro vdwattr vdwrepu polsolv apolsol rdesolv rhydroe totalscore fullpol fullapo
#   1    2.88   -1.08    0.10   -0.63    0.34    0.00    0.00       1.60   -1.69    0.90
#   2   -0.63   -1.39    0.23   -0.06   -0.28    0.00    0.00      -2.14   -0.16   -0.73
#   3    0.29   -1.92    0.50    0.29   -0.20    0.00    0.00      -1.04    0.64   -0.44
#   4   -0.10   -1.99    0.65    0.25   -0.19    0.00    0.00      -1.39    0.52   -0.41
#   5   -0.15   -2.36    0.95    0.10   -0.20    0.00    0.00      -1.65    0.23   -0.45
#   6    0.23   -2.66    1.42   -0.03   -0.19    0.00    0.00      -1.23   -0.07   -0.47
#   7    0.73   -2.14    1.18   -0.06   -0.15    0.00    0.00      -0.45   -0.17   -0.46
#   8    1.94   -2.02    0.50   -1.90   -0.09    0.00    0.00      -1.57   -3.34   -0.16
#   9   -2.17   -2.32    0.40    3.11   -0.24    0.00    0.00      -1.21    4.98   -0.38
#  10   -2.03   -1.84    0.69    0.94    0.04    0.00    0.00      -2.19    1.69    0.08
#  11    0.47   -1.29    0.27   -0.16   -0.05    0.00    0.00      -0.77   -0.26   -0.09
#  12    1.97   -1.96    0.38   -0.37   -0.46    0.00    0.00      -0.44   -0.62   -0.78
#  13   -5.45   -2.73    1.45    0.80    0.58    0.00    0.00      -5.34    1.43    1.04
#  14   -3.41   -1.93    0.62    0.49   -0.03    0.00    0.00      -4.27    0.98   -0.06
#  15   -0.60   -2.39    0.74    0.12   -0.26    0.00    0.00      -2.39    0.19   -0.41
#  16   -1.36   -2.67    0.97    0.04   -0.26    0.00    0.00      -3.29    0.07   -0.44
#  17   -1.50   -2.40    0.74   -0.08   -0.30    0.00    0.00      -3.55   -0.13   -0.47
#  18   -0.82   -2.97    0.81   -0.09   -0.31    0.00    0.00      -3.38   -0.14   -0.47
#  19   -0.32   -3.93    1.41   -0.03   -0.31    0.00    0.00      -3.18   -0.04   -0.47
#  20   -0.42   -3.01    0.88    0.12   -0.29    0.00    0.00      -2.71    0.18   -0.45
#  21   -0.95   -0.01    0.00    0.25    0.08    0.00    0.00      -0.64    1.84    0.59
#  22   -1.88   -0.03    0.00    0.29    0.16    0.00    0.00      -1.45    1.04    0.59
#  23   -0.70   -0.70    0.76   -0.24   -0.11    0.00    0.00      -0.99   -0.57   -0.26
#  24    0.58   -0.69    0.57   -0.06   -0.09    0.00    0.00       0.31   -0.15   -0.22
#  25   -0.57   -0.65    0.30    0.29   -0.11    0.00    0.00      -0.73    0.74   -0.28
#  26   -0.94   -0.53    0.64    0.15   -0.06    0.00    0.00      -0.74    0.68   -0.28
#  27    0.46   -0.40    0.09   -0.16   -0.13    0.00    0.00      -0.15   -0.33   -0.28
#  28    0.35   -0.57    0.23   -0.15   -0.13    0.00    0.00      -0.27   -0.33   -0.28
#  29    2.16   -0.04    0.00    0.37    0.52    0.00    0.00       3.01    0.89    1.25
#  30    1.72   -0.62    0.20    0.05   -0.13    0.00    0.00       1.22    0.10   -0.24
#  31    1.54   -0.39    0.05    0.28   -0.14    0.00    0.00       1.35    0.58   -0.28
#  32    0.97   -0.77    0.46    0.37   -0.16    0.00    0.00       0.87    0.67   -0.28
#  33   -0.63   -1.33    1.17    0.27   -0.19    0.00    0.00      -0.71    0.41   -0.28
#  34    0.40   -0.69    0.23   -0.16   -0.15    0.00    0.00      -0.37   -0.27   -0.26
@<TRIPOS>MOLECULE
E46400668
   34    35     0     0     0
SMALL
USER_CHARGES


@<TRIPOS>ATOM
      1 N1         26.2459   14.3673   62.6110 N.pl3     1            -0.8770
      2 C1         25.0972   14.9988   63.0945 C.ar      1             0.2043
      3 C2         23.9587   14.2547   63.3647 C.ar      1            -0.1359
      4 C3         22.8146   14.8900   63.8479 C.ar      1            -0.0773
      5 C4         22.8237   16.2711   64.0559 C.ar      1            -0.1149
      6 C5         23.9617   17.0022   63.7837 C.ar      1            -0.0857
      7 C6         25.0973   16.3718   63.3099 C.ar      1            -0.1625
      8 C7         21.5972   14.1048   64.1379 C.2       1             0.5077
      9 O1         21.5913   12.9038   63.9558 O.2       1            -0.5072
     10 O2         20.4936   14.7206   64.6043 O.3       1            -0.3121
     11 C8         19.2333   14.1410   64.2616 C.3       1             0.0729
     12 C9         18.1873   15.2231   64.1832 C.2       1             0.1640
     13 N2         18.3239   16.1946   63.3405 N.2       1            -0.3149
     14 O3         19.4562   16.2415   62.4915 O.3       1            -0.3666
     15 C10        17.0067   15.1741   65.0684 C.ar      1            -0.0498
     16 C11        15.7904   15.7135   64.6456 C.ar      1            -0.0935
     17 C12        14.6912   15.6644   65.4778 C.ar      1            -0.1197
     18 C13        14.7923   15.0827   66.7290 C.ar      1            -0.1002
     19 C14        15.9948   14.5466   67.1546 C.ar      1            -0.1226
     20 C15        17.1001   14.5830   66.3298 C.ar      1            -0.0771
     21 H1         27.0443   14.8870   62.4276 H         1             0.4011
     22 H2         26.2464   13.4088   62.4624 H         1             0.4008
     23 H3         23.9576   13.1871   63.2015 H         1             0.1346
     24 H4         21.9398   16.7668   64.4294 H         1             0.1404
     25 H5         23.9667   18.0701   63.9450 H         1             0.1318
     26 H6         25.9865   16.9489   63.1031 H         1             0.1271
     27 H7         19.3134   13.6424   63.2957 H         1             0.0926
     28 H8         18.9484   13.4147   65.0228 H         1             0.0925
     29 H9         19.4706   17.0039   61.8969 H         1             0.3948
     30 H10        15.7103   16.1685   63.6694 H         1             0.1295
     31 H11        13.7497   16.0814   65.1519 H         1             0.1308
     32 H12        13.9288   15.0472   67.3767 H         1             0.1278
     33 H13        16.0671   14.0946   68.1327 H         1             0.1298
     34 H14        18.0368   14.1596   66.6611 H         1             0.1345
@<TRIPOS>BOND
     1    1    2 1 
     2    1   21 1 
     3    1   22 1 
     4    2    7 ar
     5    2    3 ar
     6    3    4 ar
     7    3   23 1 
     8    4    5 ar
     9    4    8 1 
    10    5    6 ar
    11    5   24 1 
    12    6    7 ar
    13    6   25 1 
    14    7   26 1 
    15    8    9 2 
    16    8   10 1 
    17   10   11 1 
    18   11   12 1 
    19   11   27 1 
    20   11   28 1 
    21   12   13 2 
    22   12   15 1 
    23   13   14 1 
    24   14   29 1 
    25   15   20 ar
    26   15   16 ar
    27   16   17 ar
    28   16   30 1 
    29   17   18 ar
    30   17   31 1 
    31   18   19 ar
    32   18   32 1 
    33   19   20 ar
    34   19   33 1 
    35   20   34 1 
##########                 Name:            E45757243
##########          Protonation:                   97
##########               SMILES:   COCC[NH+]1CC[C@@H](CC1)CNC(=O)c2snnc2
##########            Long Name:   N-[[1-(2-methoxyethyl)piperidin-1-ium-4-yl]methyl]thiadiazole-5-carboxamide
##########          FlexRecCode: 1
##########               Number:                  549
##########   Ligand Source File: /raidb/db2/rgc/leads-emolecules-300/leads-emolecules-2a-0000173.db2.gz
##########           GlobalRank: 4519
##########                 Rank:                    1
##########               Setnum:                   82
##########             Matchnum:                 2012
##########                Cloud:                    1
##########        Electrostatic:           -26.687197
##########        Van der Waals:           -21.672588
##########  Ligand Polar Desolv:             9.083131
########## Ligand Apolar Desolv:            -0.607748
##########      Internal Energy:             0.000000
##########      Receptor Energy: 0.0
########## Receptor Desolvation:             0.000000
########## Receptor Hydrophobic:             0.000000
##########         Total Energy: -39.88
##########        Ligand Charge:             1.000000
##########            Arbitrary:    +999.9990
##########     heavy atom count:   19
##########           pose count:    1
##########        Ligand Energy:             0.000000
# num electro vdwattr vdwrepu polsolv apolsol rdesolv rhydroe totalscore fullpol fullapo
#   1   -0.17   -0.53    0.03    0.15    0.01    0.00    0.00      -0.51    0.49    0.03
#   2    5.12   -1.22    0.26   -2.85    0.41    0.00    0.00       1.71   -8.90    1.29
#   3   -0.48   -1.32    0.81    0.08   -0.04    0.00    0.00      -0.95    0.25   -0.12
#   4    0.32   -1.52    0.70    0.04   -0.12    0.00    0.00      -0.58    0.10   -0.32
#   5    9.13   -1.55    0.94   -4.04    0.15    0.00    0.00       4.63  -11.53    0.43
#   6  -14.27   -0.10    0.03    4.58    0.16    0.00    0.00      -9.60   14.96    0.52
#   7    0.13   -1.25    0.39    0.19   -0.17    0.00    0.00      -0.72    0.46   -0.42
#   8    1.99   -0.69    0.04   -1.74   -0.09    0.00    0.00      -0.49   -4.12   -0.21
#   9    1.05   -0.65    0.04   -0.87   -0.06    0.00    0.00      -0.49   -2.41   -0.16
#  10   -0.43   -1.30    0.23    0.92   -0.17    0.00    0.00      -0.75    2.09   -0.38
#  11    0.20   -1.59    0.24   -5.16    0.95    0.00    0.00      -5.35  -12.09    2.23
#  12    2.62   -1.99    0.74    3.12   -0.30    0.00    0.00       4.19    6.97   -0.66
#  13   -4.99   -3.40    3.32   -1.84    0.20    0.00    0.00      -6.71   -3.85    0.42
#  14   -1.09   -1.67    0.34   -1.32   -0.17    0.00    0.00      -3.90   -2.41   -0.31
#  15    0.20   -2.08    0.51    0.09   -0.57    0.00    0.00      -1.86    0.15   -1.00
#  16   -1.20   -3.23    0.94   -0.88    0.76    0.00    0.00      -3.62   -1.37    1.18
#  17   -0.30   -3.20    0.90   -1.10    0.33    0.00    0.00      -3.37   -1.68    0.50
#  18    1.76   -3.11    0.74    3.75   -0.50    0.00    0.00       2.64    6.22   -0.83
#  19    1.44   -0.89    0.14   -1.44   -0.07    0.00    0.00      -0.81   -4.56   -0.21
#  20    0.16   -0.52    0.04    0.00   -0.11    0.00    0.00      -0.43    0.00   -0.40
#  21   -0.26   -0.17    0.01    0.08   -0.05    0.00    0.00      -0.39    0.45   -0.28
#  22   -0.31   -0.15    0.01    0.18   -0.04    0.00    0.00      -0.32    1.26   -0.28
#  23   -0.29   -0.11    0.00    0.12   -0.03    0.00    0.00      -0.30    1.21   -0.28
#  24   -0.68   -0.26    0.08    0.55   -0.04    0.00    0.00      -0.35    2.82   -0.22
#  25   -1.96   -0.83    1.80    0.43   -0.08    0.00    0.00      -0.64    1.42   -0.28
#  26   -3.30   -0.77    1.31    1.65   -0.05    0.00    0.00      -1.16    5.06   -0.15
#  27   -4.66   -1.08    1.86    1.82   -0.12    0.00    0.00      -2.19    4.39   -0.28
#  28   -4.07   -0.64    0.30    2.10   -0.12    0.00    0.00      -2.43    4.89   -0.28
#  29   -3.06   -0.46    0.18    1.79   -0.09    0.00    0.00      -1.64    5.37   -0.28
#  30   -1.37   -0.26    0.03    0.79   -0.06    0.00    0.00      -0.88    2.80   -0.21
#  31   -1.29   -0.25    0.04    0.63   -0.08    0.00    0.00      -0.94    2.34   -0.28
#  32   -0.87   -0.14    0.01    0.44   -0.04    0.00    0.00      -0.60    3.43   -0.28
#  33   -0.25   -0.90    0.56    0.60   -0.12    0.00    0.00      -0.12    1.34   -0.28
#  34   -0.23   -0.51    0.16    0.35   -0.12    0.00    0.00      -0.35    0.79   -0.28
#  35   -0.53   -0.02    0.00    2.46    0.13    0.00    0.00       2.04    9.39    0.48
#  36   -0.09   -0.38    0.07    0.66   -0.11    0.00    0.00       0.15    1.62   -0.28
#  37   -0.99   -0.54    0.24    0.85   -0.07    0.00    0.00      -0.52    2.81   -0.22
#  38   -0.78   -0.49    0.32    0.75   -0.07    0.00    0.00      -0.27    2.87   -0.25
#  39   -1.67   -0.13    0.01    0.68   -0.03    0.00    0.00      -1.15    5.64   -0.28
#  40   -1.24   -0.11    0.00    0.51   -0.02    0.00    0.00      -0.86    4.43   -0.21
@<TRIPOS>MOLECULE
E45757243
   40    41     0     0     0
SMALL
USER_CHARGES


@<TRIPOS>ATOM
      1 C1         24.9797   24.3133   59.7031 C.3       1             0.0299
      2 O1         24.2290   23.0998   59.6281 O.3       1            -0.4023
      3 C2         23.7667   22.6231   60.8935 C.3       1             0.0274
      4 C3         22.9799   21.3263   60.6935 C.3       1            -0.0131
      5 N1         23.8500   20.3156   60.0775 N.4       1            -0.3798
      6 H1         24.1757   20.6531   59.1843 H         1             0.4350
      7 C4         23.0927   19.0733   59.8831 C.3       1            -0.0052
      8 C5         22.5296   18.5995   61.2247 C.3       1            -0.1423
      9 C6         23.6854   18.3478   62.1972 C.3       1            -0.1143
     10 C7         23.1262   17.9503   63.5646 C.3       1             0.1241
     11 N2         22.7506   16.5344   63.5458 N.am      1            -0.7277
     12 C8         21.4747   16.1724   63.7858 C.2       1             0.6134
     13 O2         20.6352   17.0212   64.0179 O.2       1            -0.4987
     14 C9         21.0974   14.7500   63.7668 C.2       1            -0.2504
     15 C10        21.8768   13.6227   63.5345 C.2       1             0.0807
     16 N3         21.2211   12.4897   63.5909 N.2       1            -0.2627
     17 N4         19.9615   12.4365   63.8412 N.2       1            -0.1699
     18 S1         19.5105   13.9808   64.0435 S.3       1             0.3111
     19 C11        24.5120   19.6297   62.3348 C.3       1            -0.1504
     20 C12        25.0009   20.0639   60.9531 C.3       1            -0.0115
     21 H2         25.2941   24.6086   58.7021 H         1             0.0559
     22 H3         24.3594   25.0983   60.1356 H         1             0.0517
     23 H4         25.8587   24.1586   60.3290 H         1             0.1011
     24 H5         24.6204   22.4335   61.5442 H         1             0.0739
     25 H6         23.1210   23.3730   61.3505 H         1             0.0970
     26 H7         22.6274   20.9627   61.6587 H         1             0.1463
     27 H8         22.1261   21.5159   60.0429 H         1             0.1405
     28 H9         22.2724   19.2533   59.1883 H         1             0.1352
     29 H10        23.7517   18.3068   59.4753 H         1             0.1329
     30 H11        21.8702   19.3652   61.6334 H         1             0.0941
     31 H12        21.9692   17.6761   61.0785 H         1             0.1191
     32 H13        24.3160   17.5456   61.8139 H         1             0.1021
     33 H14        23.8853   18.1147   64.3294 H         1             0.0811
     34 H15        22.2480   18.5562   63.7882 H         1             0.0869
     35 H16        23.4202   15.8574   63.3607 H         1             0.4017
     36 H17        22.9348   13.6763   63.3244 H         1             0.2162
     37 H18        23.8938   20.4167   62.7667 H         1             0.0942
     38 H19        25.3687   19.4424   62.9822 H         1             0.1118
     39 H20        25.6191   19.2763   60.5223 H         1             0.1340
     40 H21        25.5904   20.9758   61.0487 H         1             0.1309
@<TRIPOS>BOND
     1    1    2 1 
     2    1   21 1 
     3    1   22 1 
     4    1   23 1 
     5    2    3 1 
     6    3    4 1 
     7    3   24 1 
     8    3   25 1 
     9    4    5 1 
    10    4   26 1 
    11    4   27 1 
    12    5    6 1 
    13    5   20 1 
    14    5    7 1 
    15    7    8 1 
    16    7   28 1 
    17    7   29 1 
    18    8    9 1 
    19    8   30 1 
    20    8   31 1 
    21    9   10 1 
    22    9   19 1 
    23    9   32 1 
    24   10   11 1 
    25   10   33 1 
    26   10   34 1 
    27   11   12 am
    28   11   35 1 
    29   12   13 2 
    30   12   14 1 
    31   14   18 1 
    32   14   15 2 
    33   15   16 1 
    34   15   36 1 
    35   16   17 2 
    36   17   18 1 
    37   19   20 1 
    38   19   37 1 
    39   19   38 1 
    40   20   39 1 
    41   20   40 1 
##########                 Name:            E30725084
##########          Protonation:                   33
##########               SMILES:   CC(C)NC(=O)C[NH+](C)C[C@H](COc1ccc(cc1)F)O
##########            Long Name:   ophenoxy)-2-hydroxy-propyl]-[2-(isopropylamino)-2-oxo-ethyl]-methyl-ammonium
##########          FlexRecCode: 1
##########               Number:                  195
##########   Ligand Source File: /raidb/db2/rgc/leads-emolecules-300/leads-emolecules-3-bg-0000004.db2.gz
##########           GlobalRank: 4519
##########                 Rank:                    1
##########               Setnum:                  267
##########             Matchnum:                 4354
##########                Cloud:                    1
##########        Electrostatic:           -27.286394
##########        Van der Waals:           -18.506147
##########  Ligand Polar Desolv:             7.166802
########## Ligand Apolar Desolv:            -1.252435
##########      Internal Energy:             0.000000
##########      Receptor Energy: 0.0
########## Receptor Desolvation:             0.000000
########## Receptor Hydrophobic:             0.000000
##########         Total Energy: -39.88
##########        Ligand Charge:             1.000000
##########            Arbitrary:    +999.9990
##########     heavy atom count:   21
##########           pose count:    1
##########        Ligand Energy:             0.000000
# num electro vdwattr vdwrepu polsolv apolsol rdesolv rhydroe totalscore fullpol fullapo
#   1    0.13   -0.24    0.00   -0.35   -0.03    0.00    0.00      -0.48   -2.16   -0.19
#   2   -0.13   -0.21    0.00    0.30   -0.04    0.00    0.00      -0.07    2.25   -0.31
#   3   -0.15   -0.28    0.01   -0.41   -0.03    0.00    0.00      -0.86   -2.42   -0.19
#   4    3.73   -0.54    0.04   -2.79    0.38    0.00    0.00       0.82  -15.00    2.06
#   5   -2.42   -0.45    0.02    1.92   -0.11    0.00    0.00      -1.04   11.27   -0.62
#   6    0.32   -0.33    0.00   -1.63    0.05    0.00    0.00      -1.58  -10.65    0.32
#   7    0.34   -0.49    0.05    0.03   -0.10    0.00    0.00      -0.17    0.13   -0.39
#   8    7.56   -1.37    0.96   -3.46    0.08    0.00    0.00       3.78  -11.41    0.28
#   9  -13.23   -0.10    0.03    3.28    0.12    0.00    0.00      -9.90   12.92    0.49
#  10    1.78   -1.76    0.99   -0.70   -0.17    0.00    0.00       0.14   -1.82   -0.45
#  11    0.61   -0.53    0.03   -0.14   -0.09    0.00    0.00      -0.12   -0.47   -0.32
#  12   -1.29   -0.69    0.08    0.76   -0.04    0.00    0.00      -1.18    2.31   -0.13
#  13    8.69   -1.73    0.65   -4.95    0.55    0.00    0.00       3.21  -13.75    1.52
#  14   -0.24   -0.59    0.05   -0.10   -0.02    0.00    0.00      -0.90   -0.33   -0.08
#  15    1.62   -0.85    0.05   -2.01    0.31    0.00    0.00      -0.87   -5.18    0.79
#  16   -0.11   -1.39    0.29    0.68   -0.13    0.00    0.00      -0.66    1.66   -0.31
#  17   -0.66   -1.60    0.38   -0.99   -0.18    0.00    0.00      -3.06   -2.27   -0.42
#  18   -0.59   -1.66    0.32   -0.67   -0.26    0.00    0.00      -2.86   -1.21   -0.47
#  19    0.28   -2.18    0.58   -0.14   -0.20    0.00    0.00      -1.66   -0.24   -0.34
#  20   -0.64   -2.05    1.23   -0.30   -0.31    0.00    0.00      -2.08   -0.47   -0.48
#  21   -0.11   -2.45    1.16   -0.46   -0.24    0.00    0.00      -2.09   -0.89   -0.47
#  22    0.13   -1.59    0.32   -0.61   -0.20    0.00    0.00      -1.95   -1.41   -0.46
#  23   -0.16   -0.06    0.00    0.02   -0.02    0.00    0.00      -0.21    0.37   -0.28
#  24   -0.02   -0.13    0.01    0.07   -0.04    0.00    0.00      -0.12    0.44   -0.28
#  25    0.03   -0.04    0.00    0.05   -0.01    0.00    0.00       0.02    1.11   -0.28
#  26    0.01   -0.04    0.00    0.02   -0.01    0.00    0.00      -0.02    0.44   -0.26
#  27    0.09   -0.08    0.00    0.11   -0.02    0.00    0.00       0.09    1.37   -0.28
#  28    0.09   -0.06    0.00    0.06   -0.01    0.00    0.00       0.07    1.10   -0.28
#  29    0.07   -0.16    0.02    0.09   -0.05    0.00    0.00      -0.03    0.52   -0.28
#  30   -4.25   -0.02    0.00    1.97    0.10    0.00    0.00      -2.19   11.03    0.58
#  31   -1.26   -0.16    0.01    1.35   -0.04    0.00    0.00      -0.10    8.85   -0.28
#  32   -1.43   -0.15    0.01    1.41   -0.05    0.00    0.00      -0.20    8.53   -0.28
#  33   -4.31   -0.58    0.34    0.60   -0.07    0.00    0.00      -4.03    1.58   -0.19
#  34   -3.25   -0.47    0.24    0.99   -0.07    0.00    0.00      -2.56    2.94   -0.22
#  35   -3.38   -1.18    1.78    2.18   -0.11    0.00    0.00      -0.72    5.37   -0.28
#  36   -1.29   -0.12    0.01    0.94   -0.03    0.00    0.00      -0.49    7.97   -0.28
#  37   -1.86   -0.21    0.02    1.46   -0.05    0.00    0.00      -0.64    7.91   -0.28
#  38   -2.59   -0.26    0.03    0.82   -0.06    0.00    0.00      -2.06    2.90   -0.22
#  39   -9.81   -0.09    0.01    3.81    0.43    0.00    0.00      -5.65   10.82    1.22
#  40   -0.55   -0.25    0.06    0.65   -0.06    0.00    0.00      -0.15    2.98   -0.26
#  41   -0.60   -0.17    0.02    0.49   -0.04    0.00    0.00      -0.30    3.39   -0.27
#  42    0.97   -0.35    0.09    1.50   -0.07    0.00    0.00       2.14    4.45   -0.22
#  43    1.02   -0.28    0.02    0.61   -0.09    0.00    0.00       1.29    1.84   -0.28
#  44   -0.02   -0.68    0.40    0.36   -0.13    0.00    0.00      -0.07    0.78   -0.28
#  45   -0.41   -0.24    0.02    0.33   -0.07    0.00    0.00      -0.36    1.34   -0.28
@<TRIPOS>MOLECULE
E30725084
   45    45     0     0     0
SMALL
USER_CHARGES


@<TRIPOS>ATOM
      1 C1         28.7352   18.2120   59.7297 C.3       1            -0.1680
      2 C2         28.6760   19.7122   60.0245 C.3       1             0.1339
      3 C3         29.5832   20.4604   59.0458 C.3       1            -0.1671
      4 N1         27.2979   20.1857   59.8726 N.am      1            -0.6984
      5 C4         26.8573   21.2245   60.6094 C.2       1             0.5001
      6 O1         27.6015   21.7674   61.3983 O.2       1            -0.5245
      7 C5         25.4398   21.7117   60.4531 C.3       1            -0.0325
      8 N2         24.5754   20.5877   60.0684 N.4       1            -0.3665
      9 H1         24.8964   20.2006   59.1936 H         1             0.4380
     10 C6         23.1936   21.0627   59.9160 C.3       1            -0.0659
     11 C7         24.6253   19.5528   61.1097 C.3       1            -0.0434
     12 C8         24.1607   18.2177   60.5245 C.3       1             0.0856
     13 O2         25.0184   17.8473   59.4431 O.3       1            -0.5402
     14 C9         24.2127   17.1398   61.6089 C.3       1             0.0290
     15 O3         23.0574   17.2470   62.4431 O.3       1            -0.2985
     16 C10        22.5977   16.1007   63.0112 C.ar      1             0.1084
     17 C11        21.2448   15.9528   63.2792 C.ar      1            -0.1802
     18 C12        20.7791   14.7875   63.8567 C.ar      1            -0.1138
     19 C13        21.6620   13.7675   64.1682 C.ar      1             0.0736
     20 F1         21.2052   12.6285   64.7332 F         1            -0.1336
     21 C14        23.0126   13.9135   63.9007 C.ar      1            -0.1101
     22 C15        23.4803   15.0756   63.3180 C.ar      1            -0.1135
     23 H2         28.0888   17.6789   60.4270 H         1             0.0781
     24 H3         28.3985   18.0286   58.7094 H         1             0.0602
     25 H4         29.7605   17.8597   59.8429 H         1             0.0623
     26 H5         29.0128   19.8956   61.0448 H         1             0.0977
     27 H6         29.5411   21.5292   59.2557 H         1             0.0667
     28 H7         30.6086   20.1083   59.1589 H         1             0.0659
     29 H8         29.2465   20.2771   58.0254 H         1             0.0845
     30 H9         26.7028   19.7515   59.2417 H         1             0.4099
     31 H10        25.0930   22.1298   61.3980 H         1             0.1601
     32 H11        25.4025   22.4796   59.6805 H         1             0.1605
     33 H12        22.5522   20.2290   59.6306 H         1             0.1446
     34 H13        22.8469   21.4812   60.8608 H         1             0.1286
     35 H14        23.1566   21.8307   59.1432 H         1             0.1216
     36 H15        25.6477   19.4535   61.4744 H         1             0.1410
     37 H16        23.9711   19.8353   61.9345 H         1             0.1471
     38 H17        23.1384   18.3171   60.1596 H         1             0.1367
     39 H18        25.0351   18.4864   58.7177 H         1             0.3903
     40 H19        24.2334   16.1551   61.1418 H         1             0.0786
     41 H20        25.1102   17.2746   62.2125 H         1             0.0829
     42 H21        20.5560   16.7486   63.0371 H         1             0.1341
     43 H22        19.7258   14.6721   64.0656 H         1             0.1423
     44 H23        23.7002   13.1170   64.1438 H         1             0.1488
     45 H24        24.5333   15.1877   63.1058 H         1             0.1448
@<TRIPOS>BOND
     1    1    2 1 
     2    1   23 1 
     3    1   24 1 
     4    1   25 1 
     5    2    3 1 
     6    2    4 1 
     7    2   26 1 
     8    3   27 1 
     9    3   28 1 
    10    3   29 1 
    11    4    5 am
    12    4   30 1 
    13    5    6 2 
    14    5    7 1 
    15    7    8 1 
    16    7   31 1 
    17    7   32 1 
    18    8    9 1 
    19    8   10 1 
    20    8   11 1 
    21   10   33 1 
    22   10   34 1 
    23   10   35 1 
    24   11   12 1 
    25   11   36 1 
    26   11   37 1 
    27   12   13 1 
    28   12   14 1 
    29   12   38 1 
    30   13   39 1 
    31   14   15 1 
    32   14   40 1 
    33   14   41 1 
    34   15   16 1 
    35   16   22 ar
    36   16   17 ar
    37   17   18 ar
    38   17   42 1 
    39   18   19 ar
    40   18   43 1 
    41   19   20 1 
    42   19   21 ar
    43   21   22 ar
    44   21   44 1 
    45   22   45 1 
##########                 Name:            E46616087
##########          Protonation:                   65
##########               SMILES:   CCc1c([nH+]c(nc1NCc2cncn2CCOC)N)C
##########            Long Name:   3-(2-methoxyethyl)imidazol-4-yl]methyl]-6-methyl-pyrimidin-1-ium-2,4-diamine
##########          FlexRecCode: 1
##########               Number:                  182
##########   Ligand Source File: /raidb/db2/rgc/leads-emolecules-300/leads-emolecules-3-cr-0000018.db2.gz
##########           GlobalRank: 4532
##########                 Rank:                    1
##########               Setnum:                  278
##########             Matchnum:                 5115
##########                Cloud:                    1
##########        Electrostatic:           -19.774742
##########        Van der Waals:           -23.478834
##########  Ligand Polar Desolv:             6.134667
########## Ligand Apolar Desolv:            -2.753445
##########      Internal Energy:             0.000000
##########      Receptor Energy: 0.0
########## Receptor Desolvation:             0.000000
########## Receptor Hydrophobic:             0.000000
##########         Total Energy: -39.87
##########        Ligand Charge:             1.000000
##########            Arbitrary:    +999.9990
##########     heavy atom count:   21
##########           pose count:    1
##########        Ligand Energy:             0.000000
# num electro vdwattr vdwrepu polsolv apolsol rdesolv rhydroe totalscore fullpol fullapo
#   1    1.08   -0.94    0.49   -0.75   -0.05    0.00    0.00      -0.16   -3.02   -0.19
#   2    0.58   -0.56    0.04   -0.45   -0.07    0.00    0.00      -0.45   -1.45   -0.23
#   3    2.60   -0.94    0.09   -1.84   -0.12    0.00    0.00      -0.20   -5.56   -0.36
#   4   -4.28   -1.13    0.17    2.28   -0.26    0.00    0.00      -3.21    6.69   -0.75
#   5    2.73   -1.21    0.92   -1.09   -0.05    0.00    0.00       1.30   -3.80   -0.19
#   6   12.91   -1.45    0.21   -5.58    0.39    0.00    0.00       6.48  -13.80    0.97
#   7  -12.23   -0.03    0.00    4.58    0.19    0.00    0.00      -7.49   13.72    0.58
#   8  -11.89   -1.50    0.19    6.93   -2.30    0.00    0.00      -8.58   14.86   -4.94
#   9   15.76   -2.73    1.01  -10.32    0.52    0.00    0.00       4.23  -18.98    0.95
#  10    5.33   -1.35    0.18   -5.63    0.89    0.00    0.00      -0.58  -12.19    1.92
#  11   -3.97   -1.14    0.18    4.01   -0.83    0.00    0.00      -1.76    9.85   -2.05
#  12    1.45   -1.48    0.57   -4.76    0.62    0.00    0.00      -3.60  -12.05    1.56
#  13    0.80   -1.12    0.25    1.54   -0.20    0.00    0.00       1.28    3.50   -0.45
#  14   -0.38   -1.63    0.36   -0.15   -0.38    0.00    0.00      -2.18   -0.27   -0.68
#  15    0.08   -2.01    0.43   -0.29   -0.59    0.00    0.00      -2.38   -0.50   -1.01
#  16   -1.85   -2.89    0.62   -2.08    1.46    0.00    0.00      -4.74   -3.20    2.25
#  17    0.66   -2.71    0.88    0.94   -2.02    0.00    0.00      -2.26    1.48   -3.20
#  18   -2.78   -1.71    0.23   -2.97    0.68    0.00    0.00      -6.55   -5.03    1.15
#  19    1.10   -1.38    0.32    0.80   -0.28    0.00    0.00       0.57    1.39   -0.48
#  20    0.65   -1.34    0.20    0.46   -0.08    0.00    0.00      -0.12    0.75   -0.13
#  21   -7.74   -2.53    1.22   -2.95    0.85    0.00    0.00     -11.16   -4.77    1.37
#  22    0.42   -1.88    0.77    0.16    0.02    0.00    0.00      -0.51    0.27    0.03
#  23   -0.37   -0.19    0.04    0.14   -0.04    0.00    0.00      -0.42    0.92   -0.28
#  24   -0.41   -0.30    0.20    0.11   -0.04    0.00    0.00      -0.43    0.68   -0.22
#  25   -0.43   -0.60    0.60    0.39   -0.07    0.00    0.00      -0.10    1.55   -0.28
#  26   -0.64   -0.17    0.01    0.27   -0.05    0.00    0.00      -0.58    1.33   -0.23
#  27   -0.59   -0.22    0.03    0.58   -0.05    0.00    0.00      -0.24    2.65   -0.22
#  28   -3.12   -0.89    2.71    0.81   -0.07    0.00    0.00      -0.57    3.42   -0.28
#  29   -1.07   -0.11    0.01    0.38   -0.03    0.00    0.00      -0.83    3.51   -0.28
#  30   -2.30   -0.58    0.46    0.87   -0.06    0.00    0.00      -1.61    2.95   -0.21
#  31  -12.34   -0.06    0.00    5.37    0.26    0.00    0.00      -6.76   12.32    0.59
#  32   -6.31   -0.06    0.00    5.02    0.28    0.00    0.00      -1.07   10.46    0.59
#  33   -1.21   -0.02    0.00    1.80    0.10    0.00    0.00       0.65    7.55    0.41
#  34    0.58   -0.73    0.74    0.74   -0.11    0.00    0.00       1.22    1.91   -0.28
#  35    0.82   -0.39    0.13    0.56   -0.09    0.00    0.00       1.03    1.63   -0.26
#  36    0.18   -0.39    0.07    0.79   -0.12    0.00    0.00       0.53    1.79   -0.28
#  37    0.21   -1.23    2.50    1.58   -0.17    0.00    0.00       2.89    2.62   -0.28
#  38    1.61   -0.43    0.11    0.64   -0.12    0.00    0.00       1.81    1.46   -0.28
#  39    1.00   -0.87    0.94    0.83   -0.12    0.00    0.00       1.77    1.76   -0.26
#  40    0.35   -0.42    0.07    0.67   -0.11    0.00    0.00       0.56    1.32   -0.21
#  41    0.90   -0.62    0.33    0.29   -0.13    0.00    0.00       0.77    0.62   -0.28
#  42    1.31   -0.56    0.17    0.55   -0.14    0.00    0.00       1.32    1.07   -0.28
#  43    0.50   -0.71    0.30    0.68   -0.13    0.00    0.00       0.64    1.25   -0.24
#  44    0.51   -0.94    1.92    0.24   -0.12    0.00    0.00       1.61    0.55   -0.28
@<TRIPOS>MOLECULE
E46616087
   44    45     0     0     0
SMALL
USER_CHARGES


@<TRIPOS>ATOM
      1 C1         25.7797   17.1132   62.5065 C.3       1            -0.1589
      2 C2         24.9311   16.7793   61.2779 C.3       1            -0.0769
      3 C3         23.7754   17.7423   61.1889 C.ar      1            -0.2314
      4 C4         23.8940   18.9251   60.4854 C.ar      1             0.2355
      5 C5         25.1866   19.2729   59.7929 C.3       1            -0.1422
      6 N1         22.8594   19.7505   60.4259 N.ar      1            -0.5719
      7 H1         22.9387   20.5819   59.9326 H         1             0.4405
      8 C6         21.7176   19.4559   61.0300 C.ar      1             0.6645
      9 N2         20.6598   20.3442   60.9437 N.pl3     1            -0.7931
     10 N3         21.5631   18.3325   61.7142 N.ar      1            -0.5733
     11 C7         22.5582   17.4564   61.8108 C.ar      1             0.5246
     12 N4         22.3919   16.2797   62.5228 N.pl3     1            -0.6562
     13 C8         21.3200   16.1691   63.5151 C.3       1             0.1950
     14 C9         20.8616   14.7361   63.6018 C.2       1            -0.0844
     15 C10        21.6475   13.6444   63.6657 C.2       1             0.0273
     16 N5         20.8539   12.5651   63.7318 N.2       1            -0.4871
     17 C11        19.6060   12.9466   63.7113 C.2       1             0.2175
     18 N6         19.5665   14.2944   63.6366 N.pl3     1            -0.4495
     19 C12        18.3624   15.1279   63.5971 C.3       1             0.1003
     20 C13        17.9536   15.5014   65.0233 C.3       1             0.0487
     21 O1         16.7790   16.3145   64.9847 O.3       1            -0.3838
     22 C14        15.6527   15.6800   64.3756 C.3       1             0.0304
     23 H2         26.6156   16.4166   62.5709 H         1             0.0779
     24 H3         26.1604   18.1308   62.4194 H         1             0.0533
     25 H4         25.1674   17.0299   63.4044 H         1             0.0655
     26 H5         25.5434   16.8625   60.3799 H         1             0.0829
     27 H6         24.5503   15.7617   61.3650 H         1             0.1004
     28 H7         25.0844   20.2376   59.2960 H         1             0.1175
     29 H8         25.9897   19.3260   60.5279 H         1             0.1002
     30 H9         25.4204   18.5066   59.0538 H         1             0.1192
     31 H10        20.7597   21.1704   60.4455 H         1             0.4299
     32 H11        19.8185   20.1405   61.3815 H         1             0.4445
     33 H12        22.9853   15.5289   62.3640 H         1             0.4266
     34 H13        21.6909   16.4913   64.4880 H         1             0.1117
     35 H14        20.4830   16.8009   63.2179 H         1             0.0927
     36 H15        22.7274   13.6388   63.6641 H         1             0.1761
     37 H16        18.7472   12.2929   63.7515 H         1             0.2147
     38 H17        18.5669   16.0350   63.0284 H         1             0.1144
     39 H18        17.5531   14.5748   63.1202 H         1             0.1004
     40 H19        17.7490   14.5943   65.5919 H         1             0.0461
     41 H20        18.7628   16.0545   65.5002 H         1             0.0631
     42 H21        14.8024   16.3618   64.3853 H         1             0.0960
     43 H22        15.8962   15.4175   63.3461 H         1             0.0417
     44 H23        15.4004   14.7766   64.9309 H         1             0.0496
@<TRIPOS>BOND
     1    1    2 1 
     2    1   23 1 
     3    1   24 1 
     4    1   25 1 
     5    2    3 1 
     6    2   26 1 
     7    2   27 1 
     8    3   11 ar
     9    3    4 ar
    10    4    5 1 
    11    4    6 ar
    12    5   28 1 
    13    5   29 1 
    14    5   30 1 
    15    6    7 1 
    16    6    8 ar
    17    8    9 1 
    18    8   10 ar
    19    9   31 1 
    20    9   32 1 
    21   10   11 ar
    22   11   12 1 
    23   12   13 1 
    24   12   33 1 
    25   13   14 1 
    26   13   34 1 
    27   13   35 1 
    28   14   18 1 
    29   14   15 2 
    30   15   16 1 
    31   15   36 1 
    32   16   17 2 
    33   17   18 1 
    34   17   37 1 
    35   18   19 1 
    36   19   20 1 
    37   19   38 1 
    38   19   39 1 
    39   20   21 1 
    40   20   40 1 
    41   20   41 1 
    42   21   22 1 
    43   22   42 1 
    44   22   43 1 
    45   22   44 1 
##########                 Name:             E4573705
##########          Protonation:                  100
##########               SMILES:   c1ccc(c(c1)CSc2nnc(o2)CCCCC[NH3+])F
##########            Long Name:   5-[5-[(2-fluorophenyl)methylsulfanyl]-1,3,4-oxadiazol-2-yl]pentylammonium
##########          FlexRecCode: 1
##########               Number:                   66
##########   Ligand Source File: /raidb/db2/rgc/leads-emolecules-300/leads-emolecules-2g-0000374.db2.gz
##########           GlobalRank: 4560
##########                 Rank:                    1
##########               Setnum:                  371
##########             Matchnum:                  279
##########                Cloud:                    1
##########        Electrostatic:           -26.852100
##########        Van der Waals:           -27.329903
##########  Ligand Polar Desolv:            15.416713
########## Ligand Apolar Desolv:            -1.091753
##########      Internal Energy:             0.000000
##########      Receptor Energy: 0.0
########## Receptor Desolvation:             0.000000
########## Receptor Hydrophobic:             0.000000
##########         Total Energy: -39.86
##########        Ligand Charge:             1.000000
##########            Arbitrary:    +999.9990
##########     heavy atom count:   20
##########           pose count:    1
##########        Ligand Energy:             0.000000
# num electro vdwattr vdwrepu polsolv apolsol rdesolv rhydroe totalscore fullpol fullapo
#   1   18.20   -2.31    1.62  -10.27    0.37    0.00    0.00       7.61  -23.59    0.86
#   2  -11.00   -0.03    0.00    6.09    0.20    0.00    0.00      -4.74   17.69    0.58
#   3  -16.55   -0.11    0.01    9.20    0.30    0.00    0.00      -7.15   18.67    0.60
#   4  -12.14   -0.04    0.00    4.93    0.16    0.00    0.00      -7.08   17.78    0.58
#   5    0.19   -1.22    0.34    0.34   -0.20    0.00    0.00      -0.56    0.84   -0.49
#   6    1.75   -0.58    0.03   -1.59   -0.09    0.00    0.00      -0.48   -4.36   -0.24
#   7    0.77   -0.75    0.16   -0.86   -0.07    0.00    0.00      -0.75   -2.61   -0.22
#   8    0.42   -1.06    0.24   -0.69   -0.08    0.00    0.00      -1.17   -1.87   -0.22
#   9    0.03   -1.33    0.48   -0.18   -0.10    0.00    0.00      -1.11   -0.44   -0.24
#  10   -0.06   -1.91    0.50    0.59   -0.32    0.00    0.00      -1.20    1.23   -0.66
#  11    0.65   -3.94    3.82   -0.42    1.38    0.00    0.00       1.49   -0.78    2.60
#  12   -0.82   -3.62    1.93   -0.10    1.59    0.00    0.00      -1.03   -0.17    2.59
#  13    0.47   -1.98    0.58    0.13   -0.32    0.00    0.00      -1.12    0.21   -0.54
#  14   -0.59   -1.41    0.23   -0.45    0.16    0.00    0.00      -2.06   -0.88    0.31
#  15    0.35   -3.82    1.77    0.20   -0.48    0.00    0.00      -1.99    0.33   -0.80
#  16   -0.73   -1.20    0.19   -0.14   -0.06    0.00    0.00      -1.95   -0.25   -0.11
#  17   -1.41   -2.17    0.44   -0.42   -0.23    0.00    0.00      -3.78   -0.67   -0.36
#  18   -0.38   -2.99    0.68   -0.34   -0.29    0.00    0.00      -3.32   -0.53   -0.45
#  19   -0.36   -3.83    1.30   -0.70   -0.32    0.00    0.00      -3.91   -1.04   -0.47
#  20   -0.58   -2.95    0.96   -0.37   -0.30    0.00    0.00      -3.24   -0.59   -0.47
#  21   -1.87   -2.84    1.91   -0.58   -0.29    0.00    0.00      -3.66   -0.94   -0.47
#  22    1.70   -2.63    1.01    0.11   -0.20    0.00    0.00      -0.01    0.19   -0.34
#  23   -1.77   -1.76    0.48   -0.17   -0.27    0.00    0.00      -3.49   -0.29   -0.45
#  24   -2.42   -0.53    0.28    1.83   -0.11    0.00    0.00      -0.95    4.52   -0.28
#  25   -2.74   -0.56    0.31    1.71   -0.10    0.00    0.00      -1.39    4.67   -0.28
#  26   -1.00   -0.13    0.00    0.29   -0.03    0.00    0.00      -0.87    2.45   -0.28
#  27   -0.89   -0.18    0.01    0.48   -0.06    0.00    0.00      -0.64    2.28   -0.28
#  28   -0.42   -0.50    0.70    0.49   -0.07    0.00    0.00       0.19    1.92   -0.28
#  29   -0.55   -0.21    0.03    0.44   -0.06    0.00    0.00      -0.34    2.13   -0.28
#  30   -0.47   -0.57    0.50    0.22   -0.07    0.00    0.00      -0.39    0.86   -0.28
#  31   -0.09   -0.39    0.08    0.21   -0.09    0.00    0.00      -0.28    0.61   -0.28
#  32   -0.40   -0.23    0.02    0.51   -0.07    0.00    0.00      -0.17    1.98   -0.28
#  33    0.17   -1.37    2.97    0.90   -0.11    0.00    0.00       2.56    2.21   -0.28
#  34    1.11   -0.64    0.64    0.10   -0.11    0.00    0.00       1.10    0.24   -0.27
#  35    1.82   -0.37    0.08    0.29   -0.11    0.00    0.00       1.70    0.74   -0.28
#  36    0.60   -0.87    0.48    1.00   -0.17    0.00    0.00       1.04    1.63   -0.28
#  37   -0.50   -1.28    0.93    1.25   -0.19    0.00    0.00       0.22    1.89   -0.28
#  38    1.02   -0.56    0.12    0.94   -0.15    0.00    0.00       1.38    1.79   -0.28
#  39    1.64   -0.46    0.15    0.47   -0.13    0.00    0.00       1.67    1.03   -0.28
@<TRIPOS>MOLECULE
E4573705
   39    40     0     0     0
SMALL
USER_CHARGES


@<TRIPOS>ATOM
      1 N1         22.8997   19.5656   59.5894 N.4       1            -0.6388
      2 H1         22.1755   19.9555   60.1739 H         1             0.4358
      3 H2         22.6225   19.6315   58.6214 H         1             0.4390
      4 H3         23.7574   20.0786   59.7293 H         1             0.4356
      5 C1         23.1091   18.1555   59.9438 C.3       1            -0.0095
      6 C2         23.5294   18.0557   61.4116 C.3       1            -0.1536
      7 C3         23.7475   16.5871   61.7808 C.3       1            -0.1172
      8 C4         24.1679   16.4871   63.2486 C.3       1            -0.1204
      9 C5         24.3860   15.0184   63.6177 C.3       1            -0.0211
     10 C6         23.1051   14.2525   63.4088 C.2       1             0.1554
     11 N2         22.9890   13.0912   62.8344 N.2       1            -0.2689
     12 N3         21.7527   12.7354   62.8278 N.2       1            -0.2896
     13 C7         21.0303   13.6665   63.4033 C.2       1             0.1413
     14 O1         21.8726   14.6438   63.7883 O.3       1            -0.2057
     15 S1         19.2840   13.6398   63.6362 S.3       1             0.0706
     16 C8         18.9302   15.2050   64.4821 C.3       1            -0.0684
     17 C9         17.5940   15.1117   65.1727 C.ar      1            -0.1257
     18 C10        17.5202   14.6629   66.4779 C.ar      1            -0.0666
     19 C11        16.2948   14.5772   67.1116 C.ar      1            -0.1277
     20 C12        15.1415   14.9402   66.4408 C.ar      1            -0.0725
     21 C13        15.2129   15.3896   65.1362 C.ar      1            -0.1531
     22 C14        16.4406   15.4809   64.5020 C.ar      1             0.1218
     23 F1         16.5121   15.9246   63.2279 F         1            -0.1312
     24 H4         22.1826   17.6016   59.7928 H         1             0.1348
     25 H5         23.8914   17.7344   59.3125 H         1             0.1345
     26 H6         24.4559   18.6097   61.5628 H         1             0.0891
     27 H7         22.7471   18.4768   62.0431 H         1             0.0899
     28 H8         22.8210   16.0329   61.6297 H         1             0.0817
     29 H9         24.5299   16.1659   61.1494 H         1             0.0803
     30 H10        25.0943   17.0412   63.3997 H         1             0.0741
     31 H11        23.3856   16.9083   63.8801 H         1             0.0787
     32 H12        25.1682   14.5972   62.9862 H         1             0.1154
     33 H13        24.6855   14.9471   64.6632 H         1             0.1016
     34 H14        19.7075   15.4029   65.2200 H         1             0.1130
     35 H15        18.9066   16.0148   63.7528 H         1             0.1173
     36 H16        18.4204   14.3787   67.0027 H         1             0.1395
     37 H17        16.2381   14.2260   68.1313 H         1             0.1380
     38 H18        14.1846   14.8722   66.9367 H         1             0.1399
     39 H19        14.3119   15.6729   64.6122 H         1             0.1426
@<TRIPOS>BOND
     1    1    2 1 
     2    1    3 1 
     3    1    4 1 
     4    1    5 1 
     5    5    6 1 
     6    5   24 1 
     7    5   25 1 
     8    6    7 1 
     9    6   26 1 
    10    6   27 1 
    11    7    8 1 
    12    7   28 1 
    13    7   29 1 
    14    8    9 1 
    15    8   30 1 
    16    8   31 1 
    17    9   10 1 
    18    9   32 1 
    19    9   33 1 
    20   10   14 1 
    21   10   11 2 
    22   11   12 1 
    23   12   13 2 
    24   13   14 1 
    25   13   15 1 
    26   15   16 1 
    27   16   17 1 
    28   16   34 1 
    29   16   35 1 
    30   17   22 ar
    31   17   18 ar
    32   18   19 ar
    33   18   36 1 
    34   19   20 ar
    35   19   37 1 
    36   20   21 ar
    37   20   38 1 
    38   21   22 ar
    39   21   39 1 
    40   22   23 1 
##########                 Name:            E43486036
##########          Protonation:                   98
##########               SMILES:   Cc1nnsc1C(=O)NC[C@H]2CC[NH+](CC2)C
##########            Long Name:   4-methyl-N-[(1-methylpiperidin-1-ium-4-yl)methyl]thiadiazole-5-carboxamide
##########          FlexRecCode: 1
##########               Number:                  606
##########   Ligand Source File: /raidb/db2/rgc/leads-emolecules-300/leads-emolecules-lt300-1a-0000049.db2.gz
##########           GlobalRank: 4560
##########                 Rank:                    1
##########               Setnum:                   18
##########             Matchnum:                 5183
##########                Cloud:                    1
##########        Electrostatic:           -29.875158
##########        Van der Waals:           -20.183691
##########  Ligand Polar Desolv:            11.348119
########## Ligand Apolar Desolv:            -1.153751
##########      Internal Energy:             0.000000
##########      Receptor Energy: 0.0
########## Receptor Desolvation:             0.000000
########## Receptor Hydrophobic:             0.000000
##########         Total Energy: -39.86
##########        Ligand Charge:             1.000000
##########            Arbitrary:    +999.9990
##########     heavy atom count:   17
##########           pose count:    1
##########        Ligand Energy:             0.000000
# num electro vdwattr vdwrepu polsolv apolsol rdesolv rhydroe totalscore fullpol fullapo
#   1    0.97   -1.11    0.32   -0.72   -0.16    0.00    0.00      -0.70   -2.02   -0.44
#   2    9.56   -1.98    1.94   -4.23    0.20    0.00    0.00       5.49  -11.93    0.56
#   3  -17.07   -0.21    0.14    6.02    0.19    0.00    0.00     -10.92   17.30    0.56
#   4    0.10   -0.59    0.06    0.13   -0.13    0.00    0.00      -0.43    0.43   -0.42
#   5    1.53   -0.81    0.09   -1.37   -0.07    0.00    0.00      -0.62   -4.02   -0.21
#   6    1.46   -1.22    0.31   -0.98   -0.07    0.00    0.00      -0.50   -2.33   -0.16
#   7   -0.52   -2.01    0.87    0.96   -0.18    0.00    0.00      -0.88    1.99   -0.38
#   8    0.57   -1.83    0.37   -5.09    1.01    0.00    0.00      -4.96  -11.27    2.23
#   9    2.45   -1.91    0.61    2.83   -0.30    0.00    0.00       3.69    6.32   -0.66
#  10   -6.13   -2.57    1.56   -1.71    0.17    0.00    0.00      -8.68   -3.62    0.36
#  11   -0.70   -1.67    0.40   -1.02   -0.15    0.00    0.00      -3.15   -2.16   -0.32
#  12    0.42   -1.79    0.36    0.09   -0.45    0.00    0.00      -1.37    0.16   -0.77
#  13   -0.49   -1.23    0.22   -0.25   -0.12    0.00    0.00      -1.87   -0.41   -0.20
#  14   -1.09   -2.82    0.68   -0.59    0.68    0.00    0.00      -3.14   -0.95    1.10
#  15   -0.13   -3.99    2.52   -0.76    0.28    0.00    0.00      -2.08   -1.35    0.50
#  16   -0.16   -3.29    1.30    2.66   -0.39    0.00    0.00       0.12    5.61   -0.83
#  17    2.33   -0.81    0.06   -2.05   -0.10    0.00    0.00      -0.58   -4.49   -0.21
#  18    0.20   -1.49    0.53    0.15   -0.19    0.00    0.00      -0.81    0.33   -0.42
#  19   -1.44   -0.19    0.02    0.83   -0.06    0.00    0.00      -0.84    4.18   -0.28
#  20   -2.38   -0.88    1.19    1.72   -0.12    0.00    0.00      -0.46    4.16   -0.28
#  21   -1.50   -0.20    0.02    0.69   -0.03    0.00    0.00      -1.03    3.02   -0.15
#  22   -1.49   -0.11    0.01    0.51   -0.03    0.00    0.00      -1.11    5.02   -0.28
#  23   -2.23   -0.19    0.02    1.06   -0.06    0.00    0.00      -1.40    5.06   -0.28
#  24   -0.85   -0.18    0.01    0.42   -0.04    0.00    0.00      -0.63    2.52   -0.22
#  25   -0.81   -0.49    0.18    0.60   -0.09    0.00    0.00      -0.61    1.96   -0.28
#  26   -1.93   -1.05    2.13    1.16   -0.10    0.00    0.00       0.20    3.10   -0.28
#  27   -0.27   -1.12    0.73    0.63   -0.15    0.00    0.00      -0.18    1.16   -0.28
#  28   -0.18   -1.15    1.92    0.32   -0.13    0.00    0.00       0.78    0.68   -0.28
#  29   -1.01   -0.02    0.00    2.72    0.15    0.00    0.00       1.84    8.76    0.48
#  30    0.31   -0.58    0.31    0.29   -0.15    0.00    0.00       0.18    0.54   -0.28
#  31    0.69   -0.32    0.04    0.15   -0.10    0.00    0.00       0.45    0.40   -0.28
#  32    0.66   -0.42    0.11    0.22   -0.09    0.00    0.00       0.47    0.53   -0.22
#  33   -1.09   -0.23    0.03    0.63   -0.06    0.00    0.00      -0.72    2.50   -0.22
#  34   -1.60   -0.30    0.04    0.83   -0.09    0.00    0.00      -1.11    2.37   -0.25
#  35   -3.95   -0.66    0.51    2.06   -0.11    0.00    0.00      -2.15    5.30   -0.28
#  36   -4.13   -0.81    0.48    2.45   -0.13    0.00    0.00      -2.14    5.15   -0.28
@<TRIPOS>MOLECULE
E43486036
   36    37     0     0     0
SMALL
USER_CHARGES


@<TRIPOS>ATOM
      1 C1         24.3214   17.8331   59.9022 C.3       1            -0.0591
      2 N1         23.9914   19.2584   59.7688 N.4       1            -0.3821
      3 H1         24.3748   19.6118   58.9052 H         1             0.4301
      4 C2         24.5664   19.9999   60.8974 C.3       1            -0.0065
      5 C3         24.0486   19.4156   62.2136 C.3       1            -0.1425
      6 C4         22.5219   19.5294   62.2506 C.3       1            -0.1147
      7 C5         21.9910   18.8756   63.5280 C.3       1             0.1248
      8 N2         22.3753   17.4620   63.5489 N.am      1            -0.7286
      9 C6         21.4260   16.5062   63.5933 C.2       1             0.6153
     10 O1         20.2505   16.8173   63.6159 O.2       1            -0.4975
     11 C7         21.8122   15.0862   63.6143 C.2       1            -0.2602
     12 C8         21.0184   13.9457   63.6526 C.2       1             0.1114
     13 C9         19.5127   13.9999   63.6803 C.3       1            -0.0870
     14 N3         21.6881   12.8196   63.6623 N.2       1            -0.2628
     15 N4         22.9727   12.7839   63.6381 N.2       1            -0.1657
     16 S1         23.4327   14.3380   63.5900 S.3       1             0.3041
     17 C10        21.9368   18.8156   61.0286 C.3       1            -0.1505
     18 C11        22.5328   19.4224   59.7583 C.3       1            -0.0074
     19 H2         23.9076   17.4501   60.8350 H         1             0.1245
     20 H3         23.8971   17.2818   59.0631 H         1             0.1253
     21 H4         25.4044   17.7099   59.9076 H         1             0.1263
     22 H5         25.6531   19.9207   60.8679 H         1             0.1344
     23 H6         24.2774   21.0487   60.8277 H         1             0.1313
     24 H7         24.3372   18.3670   62.2846 H         1             0.0954
     25 H8         24.4752   19.9688   63.0503 H         1             0.1178
     26 H9         22.2343   20.5807   62.2326 H         1             0.1005
     27 H10        22.4138   19.3799   64.3970 H         1             0.0807
     28 H11        20.9044   18.9571   63.5535 H         1             0.0860
     29 H12        23.3129   17.2140   63.5308 H         1             0.4011
     30 H13        19.1130   12.9862   63.7085 H         1             0.0940
     31 H14        19.1849   14.5445   64.5658 H         1             0.0895
     32 H15        19.1508   14.5083   62.7866 H         1             0.1009
     33 H16        22.1816   17.7545   61.0752 H         1             0.0959
     34 H17        20.8540   18.9399   61.0184 H         1             0.1107
     35 H18        22.2873   20.4834   59.7127 H         1             0.1314
     36 H19        22.1171   18.9164   58.8870 H         1             0.1331
@<TRIPOS>BOND
     1    1    2 1 
     2    1   19 1 
     3    1   20 1 
     4    1   21 1 
     5    2    3 1 
     6    2   18 1 
     7    2    4 1 
     8    4    5 1 
     9    4   22 1 
    10    4   23 1 
    11    5    6 1 
    12    5   24 1 
    13    5   25 1 
    14    6    7 1 
    15    6   17 1 
    16    6   26 1 
    17    7    8 1 
    18    7   27 1 
    19    7   28 1 
    20    8    9 am
    21    8   29 1 
    22    9   10 2 
    23    9   11 1 
    24   11   16 1 
    25   11   12 2 
    26   12   13 1 
    27   12   14 1 
    28   13   30 1 
    29   13   31 1 
    30   13   32 1 
    31   14   15 2 
    32   15   16 1 
    33   17   18 1 
    34   17   33 1 
    35   17   34 1 
    36   18   35 1 
    37   18   36 1 
##########                 Name:            E32407777
##########          Protonation:                   47
##########               SMILES:   c1ccc(cc1)CCc2nc([nH]n2)Cc3ccccc3F
##########            Long Name:   5-[(2-fluorophenyl)methyl]-3-phenethyl-1H-1,2,4-triazole
##########          FlexRecCode: 1
##########               Number:                   73
##########   Ligand Source File: /raidb/db2/rgc/leads-emolecules-300/leads-lt300-emolecules-1j-0000241.db2.gz
##########           GlobalRank: 4580
##########                 Rank:                    1
##########               Setnum:                  140
##########             Matchnum:                 4160
##########                Cloud:                    1
##########        Electrostatic:            -8.051590
##########        Van der Waals:           -31.129433
##########  Ligand Polar Desolv:             4.308415
########## Ligand Apolar Desolv:            -4.973933
##########      Internal Energy:             0.000000
##########      Receptor Energy: 0.0
########## Receptor Desolvation:             0.000000
########## Receptor Hydrophobic:             0.000000
##########         Total Energy: -39.85
##########        Ligand Charge:             0.000000
##########            Arbitrary:    +999.9990
##########     heavy atom count:   21
##########           pose count:    1
##########        Ligand Energy:             0.000000
# num electro vdwattr vdwrepu polsolv apolsol rdesolv rhydroe totalscore fullpol fullapo
#   1   -0.29   -3.77    3.81    0.46   -0.25    0.00    0.00      -0.02    0.87   -0.46
#   2   -0.30   -2.41    0.63   -0.11   -0.16    0.00    0.00      -2.36   -0.25   -0.34
#   3    0.97   -2.65    0.73    0.13   -0.22    0.00    0.00      -1.03    0.28   -0.47
#   4    1.08   -1.46    0.23   -0.04   -0.20    0.00    0.00      -0.38   -0.09   -0.47
#   5    1.84   -0.96    0.06   -0.12   -0.18    0.00    0.00       0.64   -0.31   -0.47
#   6    0.69   -1.05    0.17   -0.07   -0.15    0.00    0.00      -0.40   -0.20   -0.45
#   7    0.49   -1.24    0.14    0.00   -0.13    0.00    0.00      -0.75    0.01   -0.35
#   8    0.00   -1.08    0.25    0.00   -0.10    0.00    0.00      -0.94    0.00   -0.25
#   9    0.13   -1.77    0.46   -0.22   -0.99    0.00    0.00      -2.40   -0.47   -2.10
#  10   -1.97   -1.75    0.36    1.53    1.05    0.00    0.00      -0.78    3.02    2.08
#  11    0.97   -1.79    0.29   -0.62   -1.24    0.00    0.00      -2.39   -1.04   -2.08
#  12   -0.11   -1.41    0.36    0.03   -0.14    0.00    0.00      -1.27    0.05   -0.24
#  13   -0.74   -1.32    0.28    0.08   -0.13    0.00    0.00      -1.82    0.14   -0.23
#  14   -0.92   -2.21    0.46    0.17   -0.23    0.00    0.00      -2.73    0.26   -0.36
#  15   -1.62   -2.67    1.04    0.17   -0.27    0.00    0.00      -3.34    0.28   -0.45
#  16   -1.48   -3.01    2.37    0.12   -0.28    0.00    0.00      -2.28    0.20   -0.47
#  17   -1.14   -2.82    1.30    0.12   -0.30    0.00    0.00      -2.84    0.19   -0.47
#  18   -0.50   -3.54    1.12    0.16   -0.31    0.00    0.00      -3.07    0.24   -0.47
#  19   -0.62   -3.04    0.73    0.23   -0.29    0.00    0.00      -3.00    0.35   -0.45
#  20   -1.09   -2.76    0.77    0.96    0.78    0.00    0.00      -1.34    1.54    1.26
#  21    0.30   -2.92    1.41    0.13    0.39    0.00    0.00      -0.69    0.25    0.73
#  22   -0.73   -1.27    0.93   -0.07   -0.15    0.00    0.00      -1.30   -0.14   -0.28
#  23   -2.53   -0.46    0.24    0.18   -0.09    0.00    0.00      -2.65    0.57   -0.28
#  24   -2.70   -0.26    0.03    0.23   -0.08    0.00    0.00      -2.77    0.83   -0.28
#  25   -1.10   -0.32    0.12    0.25   -0.07    0.00    0.00      -1.11    1.01   -0.28
#  26   -0.37   -0.20    0.01    0.27   -0.06    0.00    0.00      -0.36    1.18   -0.28
#  27    0.10   -0.96    1.68    0.05   -0.10    0.00    0.00       0.77    0.14   -0.26
#  28    0.52   -0.65    0.58   -0.11   -0.13    0.00    0.00       0.21   -0.23   -0.28
#  29    0.22   -0.66    0.36   -0.16   -0.14    0.00    0.00      -0.38   -0.32   -0.28
#  30    0.75   -0.87    1.54   -0.11   -0.13    0.00    0.00       1.18   -0.24   -0.28
#  31    1.08   -0.36    0.07   -0.07   -0.10    0.00    0.00       0.61   -0.19   -0.28
#  32    1.72   -0.53    0.12   -0.05   -0.15    0.00    0.00       1.10   -0.10   -0.28
#  33    1.31   -0.55    0.19    0.05   -0.14    0.00    0.00       0.87    0.10   -0.28
#  34    1.06   -0.46    0.09    0.06   -0.14    0.00    0.00       0.61    0.12   -0.28
#  35   -0.22   -1.15    0.93    0.02   -0.18    0.00    0.00      -0.60    0.03   -0.28
#  36    0.35   -0.82    0.25   -0.16   -0.18    0.00    0.00      -0.56   -0.25   -0.28
#  37   -3.19   -0.11    0.02    0.83    0.19    0.00    0.00      -2.26    1.74    0.41
@<TRIPOS>MOLECULE
E32407777
   37    39     0     0     0
SMALL
USER_CHARGES


@<TRIPOS>ATOM
      1 F1         23.0860   17.5180   65.1725 F         1            -0.1263
      2 C1         23.1125   17.8164   63.8551 C.ar      1             0.1314
      3 C2         22.7303   19.0749   63.4218 C.ar      1            -0.1571
      4 C3         22.7579   19.3789   62.0741 C.ar      1            -0.0842
      5 C4         23.1667   18.4269   61.1584 C.ar      1            -0.1335
      6 C5         23.5485   17.1705   61.5898 C.ar      1            -0.0828
      7 C6         23.5276   16.8661   62.9379 C.ar      1            -0.1235
      8 C7         23.9499   15.4982   63.4085 C.3       1             0.0003
      9 C8         22.7507   14.5860   63.4416 C.2       1             0.2883
     10 N1         21.5703   14.8857   63.9194 N.2       1            -0.5224
     11 C9         20.7508   13.8437   63.7863 C.2       1             0.2320
     12 C10        19.3077   13.8036   64.2186 C.3       1            -0.0198
     13 C11        18.9232   15.1491   64.8374 C.3       1            -0.0712
     14 C12        17.4801   15.1091   65.2697 C.ar      1            -0.0827
     15 C13        16.4838   15.4856   64.3884 C.ar      1            -0.1155
     16 C14        15.1601   15.4489   64.7850 C.ar      1            -0.1188
     17 C15        14.8326   15.0353   66.0627 C.ar      1            -0.1233
     18 C16        15.8288   14.6579   66.9437 C.ar      1            -0.1185
     19 C17        17.1521   14.6906   66.5458 C.ar      1            -0.1140
     20 N2         21.4014   12.8619   63.2195 N.2       1            -0.3105
     21 N3         22.7058   13.3243   62.9800 N.pl3     1            -0.4805
     22 H1         22.4104   19.8184   64.1368 H         1             0.1373
     23 H2         22.4598   20.3603   61.7359 H         1             0.1335
     24 H3         23.1873   18.6651   60.1052 H         1             0.1305
     25 H4         23.8672   16.4277   60.8736 H         1             0.1302
     26 H5         24.6959   15.0930   62.7248 H         1             0.1025
     27 H6         24.3766   15.5737   64.4086 H         1             0.1130
     28 H7         18.6745   13.6074   63.3533 H         1             0.0892
     29 H8         19.1710   13.0124   64.9558 H         1             0.0944
     30 H9         19.5564   15.3453   65.7027 H         1             0.0776
     31 H10        19.0599   15.9403   64.1003 H         1             0.0747
     32 H11        16.7397   15.8087   63.3902 H         1             0.1219
     33 H12        14.3819   15.7437   64.0967 H         1             0.1218
     34 H13        13.7984   15.0073   66.3727 H         1             0.1210
     35 H14        15.5729   14.3351   67.9421 H         1             0.1221
     36 H15        17.9302   14.3921   67.2328 H         1             0.1229
     37 H16        23.4307   12.8304   62.5659 H         1             0.4402
@<TRIPOS>BOND
     1    1    2 1 
     2    2    7 ar
     3    2    3 ar
     4    3    4 ar
     5    3   22 1 
     6    4    5 ar
     7    4   23 1 
     8    5    6 ar
     9    5   24 1 
    10    6    7 ar
    11    6   25 1 
    12    7    8 1 
    13    8    9 1 
    14    8   26 1 
    15    8   27 1 
    16    9   21 1 
    17    9   10 2 
    18   10   11 1 
    19   11   12 1 
    20   11   20 2 
    21   12   13 1 
    22   12   28 1 
    23   12   29 1 
    24   13   14 1 
    25   13   30 1 
    26   13   31 1 
    27   14   19 ar
    28   14   15 ar
    29   15   16 ar
    30   15   32 1 
    31   16   17 ar
    32   16   33 1 
    33   17   18 ar
    34   17   34 1 
    35   18   19 ar
    36   18   35 1 
    37   19   36 1 
    38   20   21 1 
    39   21   37 1 
##########                 Name:             E4410625
##########          Protonation:                  100
##########               SMILES:   c1cc(ccc1OCCCC[NH2+]C[C@@H]2CCCO2)F
##########            Long Name:   4-(4-fluorophenoxy)butyl-[[(2S)-tetrahydrofuran-2-yl]methyl]ammonium
##########          FlexRecCode: 1
##########               Number:                  773
##########   Ligand Source File: /raidb/db2/rgc/leads-emolecules-300/leads-emolecules-lt300-1e-0000026.db2.gz
##########           GlobalRank: 4601
##########                 Rank:                    1
##########               Setnum:                  128
##########             Matchnum:                 5042
##########                Cloud:                    1
##########        Electrostatic:           -24.301361
##########        Van der Waals:           -19.944576
##########  Ligand Polar Desolv:             6.924408
########## Ligand Apolar Desolv:            -2.521412
##########      Internal Energy:             0.000000
##########      Receptor Energy: 0.0
########## Receptor Desolvation:             0.000000
########## Receptor Hydrophobic:             0.000000
##########         Total Energy: -39.84
##########        Ligand Charge:             1.000000
##########            Arbitrary:    +999.9990
##########     heavy atom count:   19
##########           pose count:    1
##########        Ligand Energy:             0.000000
# num electro vdwattr vdwrepu polsolv apolsol rdesolv rhydroe totalscore fullpol fullapo
#   1   -0.81   -3.49    2.87   -0.18   -0.32    0.00    0.00      -1.94   -0.27   -0.48
#   2    0.29   -2.54    0.71   -0.10   -0.21    0.00    0.00      -1.86   -0.16   -0.34
#   3   -0.28   -2.10    0.54   -0.38   -0.25    0.00    0.00      -2.47   -0.70   -0.47
#   4   -0.22   -1.65    0.45   -0.51   -0.21    0.00    0.00      -2.14   -1.10   -0.46
#   5    0.63   -1.62    0.36    0.52   -0.14    0.00    0.00      -0.26    1.12   -0.31
#   6   -2.22   -1.82    0.85   -1.76    0.40    0.00    0.00      -4.55   -3.92    0.89
#   7   -0.25   -0.92    0.17    0.14   -0.04    0.00    0.00      -0.90    0.32   -0.09
#   8    1.42   -1.13    0.28   -1.31   -0.12    0.00    0.00      -0.86   -2.57   -0.24
#   9    3.21   -1.12    0.18   -1.92   -0.11    0.00    0.00       0.24   -4.02   -0.24
#  10    0.15   -0.79    0.08    0.25   -0.16    0.00    0.00      -0.47    0.64   -0.40
#  11   11.91   -1.54    1.08   -5.64    0.25    0.00    0.00       6.06  -16.73    0.73
#  12  -12.00   -0.05    0.01    4.46    0.15    0.00    0.00      -7.44   16.85    0.57
#  13  -12.41   -0.05    0.00    5.05    0.18    0.00    0.00      -7.22   15.33    0.54
#  14    0.24   -0.52    0.05    0.10   -0.10    0.00    0.00      -0.24    0.38   -0.38
#  15   -0.44   -0.51    0.09    0.26   -0.04    0.00    0.00      -0.64    1.17   -0.16
#  16    0.29   -0.26    0.01   -0.49   -0.04    0.00    0.00      -0.50   -3.20   -0.27
#  17    0.01   -0.34    0.01   -0.62   -0.06    0.00    0.00      -1.00   -3.03   -0.30
#  18   -0.13   -0.38    0.01    0.21   -0.03    0.00    0.00      -0.32    0.86   -0.14
#  19    2.47   -0.69    0.06   -2.24    0.37    0.00    0.00      -0.02   -8.37    1.37
#  20   -1.38   -1.60    0.20   -0.97   -0.23    0.00    0.00      -3.98   -1.74   -0.42
#  21   -0.51   -2.05    0.41   -0.54   -0.29    0.00    0.00      -2.98   -0.89   -0.47
#  22    0.10   -0.49    0.15    0.40   -0.13    0.00    0.00       0.03    0.88   -0.28
#  23   -0.10   -0.24    0.03    0.35   -0.07    0.00    0.00      -0.04    1.38   -0.28
#  24   -0.36   -0.21    0.01    0.42   -0.07    0.00    0.00      -0.21    1.57   -0.27
#  25   -0.40   -0.44    0.43    0.39   -0.07    0.00    0.00      -0.10    1.46   -0.27
#  26   -1.00   -0.41    0.08    0.66   -0.12    0.00    0.00      -0.79    1.50   -0.28
#  27   -1.09   -0.68    0.91    0.63   -0.10    0.00    0.00      -0.34    1.70   -0.28
#  28   -2.12   -0.43    0.09    1.39   -0.11    0.00    0.00      -1.18    3.43   -0.28
#  29   -2.61   -0.69    0.63    1.24   -0.12    0.00    0.00      -1.55    2.98   -0.28
#  30   -2.71   -0.47    0.30    1.40   -0.09    0.00    0.00      -1.57    4.54   -0.28
#  31   -1.76   -0.16    0.01    0.81   -0.04    0.00    0.00      -1.14    5.35   -0.28
#  32   -1.46   -0.20    0.03    0.79   -0.05    0.00    0.00      -0.90    4.40   -0.28
#  33   -1.26   -0.12    0.00    0.79   -0.03    0.00    0.00      -0.62    6.34   -0.28
#  34   -1.22   -0.31    0.17    0.70   -0.06    0.00    0.00      -0.71    3.50   -0.28
#  35   -0.09   -0.06    0.00    0.14   -0.02    0.00    0.00      -0.03    2.41   -0.27
#  36   -0.03   -0.08    0.00    0.13   -0.02    0.00    0.00       0.01    1.90   -0.28
#  37    0.09   -0.12    0.01    0.12   -0.04    0.00    0.00       0.06    0.95   -0.28
#  38    0.18   -0.14    0.01    0.11   -0.04    0.00    0.00       0.11    0.68   -0.28
#  39   -0.22   -0.12    0.00    0.16   -0.03    0.00    0.00      -0.21    1.35   -0.28
#  40   -0.13   -0.13    0.00    0.10   -0.04    0.00    0.00      -0.19    0.73   -0.28
#  41    1.53   -0.32    0.03    1.15   -0.09    0.00    0.00       2.31    2.92   -0.22
#  42    0.40   -0.65    0.39    0.73   -0.15    0.00    0.00       0.72    1.40   -0.28
@<TRIPOS>MOLECULE
E4410625
   42    43     0     0     0
SMALL
USER_CHARGES


@<TRIPOS>ATOM
      1 F1         21.2514   11.7816   64.5656 F         1            -0.1353
      2 C1         21.0808   13.0608   64.1657 C.ar      1             0.0690
      3 C2         22.1815   13.8398   63.8514 C.ar      1            -0.1109
      4 C3         22.0086   15.1479   63.4423 C.ar      1            -0.1184
      5 C4         20.7316   15.6809   63.3464 C.ar      1             0.1135
      6 O1         20.5600   16.9679   62.9436 O.3       1            -0.3117
      7 C5         21.5345   17.5021   62.0452 C.3       1             0.0567
      8 C6         20.8790   18.5542   61.1485 C.3       1            -0.1179
      9 C7         21.9225   19.1261   60.1868 C.3       1            -0.1476
     10 C8         23.0545   19.7723   60.9878 C.3       1            -0.0077
     11 N1         24.0564   20.3215   60.0644 N.4       1            -0.5068
     12 H1         24.4302   19.5784   59.4932 H         1             0.4278
     13 H2         23.6241   21.0153   59.4730 H         1             0.4345
     14 C9         25.1433   20.9420   60.8335 C.3       1            -0.0190
     15 C10        26.1868   21.5138   59.8717 C.3       1             0.0515
     16 C11        27.4769   21.8931   60.6210 C.3       1            -0.1478
     17 C12        26.9310   23.1283   61.3490 C.3       1            -0.1579
     18 C13        26.2544   23.8287   60.1765 C.3       1             0.0490
     19 O2         25.7658   22.7795   59.3534 O.3       1            -0.3853
     20 C14        19.6298   14.8994   63.6616 C.ar      1            -0.1803
     21 C15        19.8053   13.5898   64.0649 C.ar      1            -0.1136
     22 H3         23.1757   13.4247   63.9264 H         1             0.1472
     23 H4         22.8673   15.7555   63.1975 H         1             0.1434
     24 H5         22.3410   17.9624   62.6160 H         1             0.0670
     25 H6         21.9383   16.6993   61.4282 H         1             0.0671
     26 H7         20.0726   18.0938   60.5778 H         1             0.0875
     27 H8         20.4753   19.3568   61.7655 H         1             0.0874
     28 H9         22.3263   18.3234   59.5697 H         1             0.0920
     29 H10        21.4556   19.8756   59.5477 H         1             0.0923
     30 H11        22.6506   20.5750   61.6048 H         1             0.1338
     31 H12        23.5215   19.0227   61.6267 H         1             0.1342
     32 H13        24.7394   21.7445   61.4505 H         1             0.1357
     33 H14        25.6102   20.1924   61.4724 H         1             0.1419
     34 H15        26.3952   20.8117   59.0643 H         1             0.1061
     35 H16        27.7820   21.1144   61.3200 H         1             0.0892
     36 H17        28.2820   22.1524   59.9336 H         1             0.0991
     37 H18        26.2098   22.8515   62.1180 H         1             0.0975
     38 H19        27.7361   23.7342   61.7646 H         1             0.0884
     39 H20        25.4309   24.4496   60.5291 H         1             0.0718
     40 H21        26.9757   24.4359   59.6294 H         1             0.1007
     41 H22        18.6350   15.3133   63.5878 H         1             0.1349
     42 H23        18.9474   12.9796   64.3058 H         1             0.1410
@<TRIPOS>BOND
     1    1    2 1 
     2    2   21 ar
     3    2    3 ar
     4    3    4 ar
     5    3   22 1 
     6    4    5 ar
     7    4   23 1 
     8    5    6 1 
     9    5   20 ar
    10    6    7 1 
    11    7    8 1 
    12    7   24 1 
    13    7   25 1 
    14    8    9 1 
    15    8   26 1 
    16    8   27 1 
    17    9   10 1 
    18    9   28 1 
    19    9   29 1 
    20   10   11 1 
    21   10   30 1 
    22   10   31 1 
    23   11   12 1 
    24   11   13 1 
    25   11   14 1 
    26   14   15 1 
    27   14   32 1 
    28   14   33 1 
    29   15   19 1 
    30   15   16 1 
    31   15   34 1 
    32   16   17 1 
    33   16   35 1 
    34   16   36 1 
    35   17   18 1 
    36   17   37 1 
    37   17   38 1 
    38   18   19 1 
    39   18   39 1 
    40   18   40 1 
    41   20   21 ar
    42   20   41 1 
    43   21   42 1 
##########                 Name:            E30238234
##########          Protonation:                   86
##########               SMILES:   c1ccc(cc1)C[NH+]2CC[C@H](C2)NC(=O)Nc3cccnc3
##########            Long Name:   1-[(3R)-1-benzylpyrrolidin-1-ium-3-yl]-3-(3-pyridyl)urea
##########          FlexRecCode: 1
##########               Number:                  552
##########   Ligand Source File: /raidb/db2/rgc/leads-emolecules-300/leads-emolecules-2h-0000179.db2.gz
##########           GlobalRank: 4649
##########                 Rank:                    1
##########               Setnum:                  171
##########             Matchnum:                  531
##########                Cloud:                    1
##########        Electrostatic:           -23.003807
##########        Van der Waals:           -23.806408
##########  Ligand Polar Desolv:             9.286674
########## Ligand Apolar Desolv:            -2.299105
##########      Internal Energy:             0.000000
##########      Receptor Energy: 0.0
########## Receptor Desolvation:             0.000000
########## Receptor Hydrophobic:             0.000000
##########         Total Energy: -39.82
##########        Ligand Charge:             1.000000
##########            Arbitrary:    +999.9990
##########     heavy atom count:   22
##########           pose count:    1
##########        Ligand Energy:             0.000000
# num electro vdwattr vdwrepu polsolv apolsol rdesolv rhydroe totalscore fullpol fullapo
#   1    0.03   -1.29    0.24   -2.54    0.14    0.00    0.00      -3.42   -5.98    0.32
#   2   -1.16   -1.31    0.17    4.27   -0.88    0.00    0.00       1.09   10.25   -2.11
#   3    3.87   -1.34    0.12   -6.26    0.87    0.00    0.00      -2.75  -15.48    2.14
#   4   -1.58   -0.93    0.11    1.28   -0.13    0.00    0.00      -1.27    3.15   -0.33
#   5    2.62   -0.74    0.05   -1.68   -0.12    0.00    0.00       0.13   -3.94   -0.28
#   6    0.34   -1.10    0.36    0.05   -0.17    0.00    0.00      -0.52    0.14   -0.45
#   7    7.32   -1.36    0.55   -4.18    0.16    0.00    0.00       2.49  -11.99    0.45
#   8  -10.76   -0.05    0.00    5.36    0.19    0.00    0.00      -5.26   15.89    0.56
#   9   -0.59   -0.62    0.07    0.59   -0.09    0.00    0.00      -0.64    2.08   -0.33
#  10    0.96   -1.38    0.54   -0.84   -0.10    0.00    0.00      -0.82   -2.92   -0.34
#  11    0.83   -1.20    0.24   -0.64   -0.12    0.00    0.00      -0.89   -2.06   -0.40
#  12    0.26   -1.24    0.18   -0.99   -0.18    0.00    0.00      -1.96   -2.66   -0.47
#  13   -0.22   -2.11    1.10   -0.79   -0.17    0.00    0.00      -2.18   -2.17   -0.47
#  14   -0.31   -2.40    1.21   -0.92   -0.16    0.00    0.00      -2.58   -2.69   -0.47
#  15   -0.23   -2.17    1.17   -0.62   -0.14    0.00    0.00      -1.98   -2.00   -0.45
#  16    0.23   -1.42    0.56    0.22   -0.16    0.00    0.00      -0.57    0.60   -0.45
#  17   -0.12   -1.68    0.32   -4.11    0.74    0.00    0.00      -4.85   -9.49    1.70
#  18    0.18   -1.81    0.45    0.56   -0.34    0.00    0.00      -0.96    1.13   -0.68
#  19   -0.33   -1.65    0.34   -0.43   -0.23    0.00    0.00      -2.30   -0.75   -0.41
#  20   -0.59   -2.05    0.33   -0.63   -0.30    0.00    0.00      -3.23   -1.01   -0.48
#  21    0.35   -3.99    1.76    0.09   -0.65    0.00    0.00      -2.45    0.14   -0.98
#  22   -3.50   -6.33    7.94   -1.41    1.27    0.00    0.00      -2.04   -2.26    2.03
#  23    0.07   -2.91    1.16    0.23   -0.52    0.00    0.00      -1.97    0.43   -0.96
#  24   -2.34   -0.03    0.00    3.64    0.18    0.00    0.00       1.44   11.82    0.58
#  25   -1.18   -0.49    0.13    0.69   -0.10    0.00    0.00      -0.95    1.79   -0.26
#  26   -1.46   -0.24    0.03    0.75   -0.07    0.00    0.00      -0.99    2.90   -0.28
#  27   -2.14   -0.25    0.02    0.29   -0.09    0.00    0.00      -2.18    0.86   -0.28
#  28   -3.08   -0.34    0.17    0.98   -0.04    0.00    0.00      -2.31    4.49   -0.18
#  29   -4.49   -0.82    0.88    1.49   -0.11    0.00    0.00      -3.05    3.86   -0.28
#  30   -1.11   -0.11    0.00    0.77   -0.03    0.00    0.00      -0.47    6.81   -0.28
#  31   -1.97   -0.23    0.05    1.28   -0.06    0.00    0.00      -0.93    6.16   -0.27
#  32   -1.84   -0.30    0.08    1.09   -0.06    0.00    0.00      -1.03    4.62   -0.24
#  33   -0.62   -0.20    0.01    0.32   -0.06    0.00    0.00      -0.55    1.48   -0.28
#  34    0.41   -0.58    0.57    0.27   -0.10    0.00    0.00       0.56    0.74   -0.28
#  35    0.42   -0.45    0.18    0.43   -0.09    0.00    0.00       0.50    1.42   -0.28
#  36    0.35   -0.44    0.21    1.17   -0.07    0.00    0.00       1.21    4.68   -0.28
#  37   -1.52   -1.47    2.48    2.51   -0.11    0.00    0.00       1.89    6.44   -0.28
#  38   -1.16   -0.25    0.04    1.55   -0.06    0.00    0.00       0.11    7.01   -0.26
#  39    0.02   -0.04    0.00    2.76    0.19    0.00    0.00       2.95    8.36    0.59
#  40    1.06   -0.28    0.03    0.27   -0.07    0.00    0.00       1.02    0.88   -0.22
#  41    0.65   -0.51    0.23    0.66   -0.14    0.00    0.00       0.90    1.35   -0.28
#  42   -0.17   -1.58    2.07    0.74   -0.19    0.00    0.00       0.87    1.12   -0.28
#  43   -0.49   -0.63    0.37    1.01   -0.12    0.00    0.00       0.14    2.34   -0.28
@<TRIPOS>MOLECULE
E30238234
   43    45     0     0     0
SMALL
USER_CHARGES


@<TRIPOS>ATOM
      1 O1         21.4468   16.7334   62.5282 O.2       1            -0.5614
      2 C1         22.5526   16.7335   63.0334 C.2       1             0.7109
      3 N1         23.3023   17.8535   63.0140 N.am      1            -0.7346
      4 C2         22.7870   19.0688   62.3787 C.3       1             0.1522
      5 C3         22.5438   18.8289   60.8935 C.3       1            -0.1576
      6 C4         23.4308   19.8508   60.1738 C.3       1            -0.0143
      7 N2         23.6181   20.9303   61.1743 N.4       1            -0.3852
      8 H1         22.7917   21.5057   61.2373 H         1             0.4300
      9 C5         24.7942   21.7463   60.8441 C.3       1             0.0470
     10 C6         24.6929   23.0786   61.5411 C.ar      1            -0.1637
     11 C7         24.0630   24.1391   60.9168 C.ar      1            -0.0965
     12 C8         23.9702   25.3612   61.5561 C.ar      1            -0.1128
     13 C9         24.5067   25.5227   62.8197 C.ar      1            -0.0827
     14 C10        25.1358   24.4622   63.4444 C.ar      1            -0.1125
     15 C11        25.2250   23.2388   62.8069 C.ar      1            -0.0930
     16 C12        23.8322   20.1820   62.4337 C.3       1            -0.0193
     17 N3         23.0268   15.6155   63.6179 N.am      1            -0.6724
     18 C13        22.2483   14.4523   63.6382 C.ar      1             0.0962
     19 C14        20.8580   14.5328   63.6532 C.ar      1            -0.0742
     20 C15        20.1309   13.3541   63.6727 C.ar      1            -0.1518
     21 C16        20.8032   12.1458   63.6765 C.ar      1             0.0912
     22 N4         22.1210   12.1038   63.6619 N.ar      1            -0.4631
     23 C17        22.8507   13.2014   63.6380 C.ar      1             0.0843
     24 H2         24.1829   17.8548   63.4206 H         1             0.4065
     25 H3         21.8659   19.3887   62.8659 H         1             0.1301
     26 H4         22.8356   17.8148   60.6208 H         1             0.1023
     27 H5         21.4950   18.9984   60.6490 H         1             0.1195
     28 H6         24.3894   19.4051   59.9081 H         1             0.1351
     29 H7         22.9282   20.2352   59.2862 H         1             0.1354
     30 H8         25.6972   21.2320   61.1729 H         1             0.1378
     31 H9         24.8370   21.9024   59.7663 H         1             0.1356
     32 H10        23.6438   24.0128   59.9296 H         1             0.1299
     33 H11        23.4785   26.1899   61.0682 H         1             0.1365
     34 H12        24.4347   26.4778   63.3189 H         1             0.1365
     35 H13        25.5552   24.5885   64.4315 H         1             0.1368
     36 H14        25.7131   22.4090   63.2963 H         1             0.1317
     37 H15        23.6597   20.8265   63.2958 H         1             0.1462
     38 H16        24.8375   19.7618   62.4630 H         1             0.1383
     39 H17        23.9075   15.6167   64.0245 H         1             0.4127
     40 H18        20.3591   15.4907   63.6502 H         1             0.1491
     41 H19        19.0512   13.3784   63.6850 H         1             0.1427
     42 H20        20.2412   11.2238   63.6920 H         1             0.1630
     43 H21        23.9280   13.1270   63.6218 H         1             0.1577
@<TRIPOS>BOND
     1    1    2 2 
     2    2    3 am
     3    2   17 am
     4    3    4 1 
     5    3   24 1 
     6    4   16 1 
     7    4    5 1 
     8    4   25 1 
     9    5    6 1 
    10    5   26 1 
    11    5   27 1 
    12    6    7 1 
    13    6   28 1 
    14    6   29 1 
    15    7    8 1 
    16    7    9 1 
    17    7   16 1 
    18    9   10 1 
    19    9   30 1 
    20    9   31 1 
    21   10   15 ar
    22   10   11 ar
    23   11   12 ar
    24   11   32 1 
    25   12   13 ar
    26   12   33 1 
    27   13   14 ar
    28   13   34 1 
    29   14   15 ar
    30   14   35 1 
    31   15   36 1 
    32   16   37 1 
    33   16   38 1 
    34   17   18 1 
    35   17   39 1 
    36   18   23 ar
    37   18   19 ar
    38   19   20 ar
    39   19   40 1 
    40   20   21 ar
    41   20   41 1 
    42   21   22 ar
    43   21   42 1 
    44   22   23 ar
    45   23   43 1 
##########                 Name:             E3281130
##########          Protonation:                  100
##########               SMILES:   c1ccc2cc(ccc2c1)C(=O)COc3ccc(cc3)Cl
##########            Long Name:   2-(4-chlorophenoxy)-1-(2-naphthyl)ethanone
##########          FlexRecCode: 1
##########               Number:                  351
##########   Ligand Source File: /raidb/db2/rgc/leads-emolecules-300/leads-emolecules-2h-0000313.db2.gz
##########           GlobalRank: 4649
##########                 Rank:                    1
##########               Setnum:                  114
##########             Matchnum:                 5989
##########                Cloud:                    1
##########        Electrostatic:            -4.774748
##########        Van der Waals:           -34.631031
##########  Ligand Polar Desolv:             5.348413
########## Ligand Apolar Desolv:            -5.761660
##########      Internal Energy:             0.000000
##########      Receptor Energy: 0.0
########## Receptor Desolvation:             0.000000
########## Receptor Hydrophobic:             0.000000
##########         Total Energy: -39.82
##########        Ligand Charge:             0.000000
##########            Arbitrary:    +999.9990
##########     heavy atom count:   21
##########           pose count:    1
##########        Ligand Energy:             0.000000
# num electro vdwattr vdwrepu polsolv apolsol rdesolv rhydroe totalscore fullpol fullapo
#   1   -0.73   -5.70    3.19    0.07   -0.66    0.00    0.00      -3.82    0.11   -0.99
#   2   -0.89   -2.39    0.58    0.05   -0.20    0.00    0.00      -2.84    0.08   -0.30
#   3   -0.55   -2.98    0.86    0.07   -0.30    0.00    0.00      -2.90    0.10   -0.46
#   4   -1.07   -2.69    0.72    0.21   -0.30    0.00    0.00      -3.13    0.32   -0.46
#   5    1.66   -2.51    1.05   -0.06   -0.19    0.00    0.00      -0.05   -0.10   -0.31
#   6   -3.07   -1.66    0.34    0.48    0.28    0.00    0.00      -3.63    0.80    0.47
#   7    0.08   -1.41    0.38    0.01   -0.04    0.00    0.00      -0.98    0.02   -0.07
#   8    1.94   -1.73    0.28   -0.47   -0.18    0.00    0.00      -0.18   -0.80   -0.31
#   9   -1.62   -1.98    0.25    2.45   -0.16    0.00    0.00      -1.06    3.90   -0.25
#  10   -0.63   -1.64    0.46    0.05   -0.20    0.00    0.00      -1.95    0.11   -0.41
#  11   -0.10   -1.96    0.98    0.07   -0.19    0.00    0.00      -1.20    0.16   -0.43
#  12    0.18   -1.65    0.49    0.09   -0.17    0.00    0.00      -1.06    0.20   -0.40
#  13    0.88   -2.01    0.73    0.08   -0.24    0.00    0.00      -0.56    0.16   -0.46
#  14    2.18   -1.69    0.24   -0.03   -0.25    0.00    0.00       0.46   -0.05   -0.47
#  15    1.85   -1.25    0.11   -0.08   -0.20    0.00    0.00       0.43   -0.18   -0.47
#  16    1.32   -0.96    0.05   -0.09   -0.18    0.00    0.00       0.14   -0.22   -0.46
#  17    0.15   -1.11    0.10    0.00   -0.16    0.00    0.00      -1.02   -0.01   -0.40
#  18    0.24   -1.39    0.18   -0.15   -0.18    0.00    0.00      -1.29   -0.36   -0.45
#  19   -0.13   -1.78    0.42   -0.13   -0.20    0.00    0.00      -1.81   -0.30   -0.44
#  20   -2.84   -2.99    1.06   -0.27   -0.25    0.00    0.00      -5.29   -0.46   -0.42
#  21   -0.91   -2.80    0.95   -0.06   -0.28    0.00    0.00      -3.09   -0.10   -0.46
#  22    0.43   -0.82    0.30    0.01   -0.17    0.00    0.00      -0.26    0.01   -0.28
#  23    0.53   -0.57    0.12   -0.17   -0.16    0.00    0.00      -0.25   -0.29   -0.28
#  24    0.85   -0.67    0.60    0.43   -0.12    0.00    0.00       1.10    0.97   -0.26
#  25    0.33   -0.63    0.32    0.47   -0.13    0.00    0.00       0.37    0.97   -0.26
#  26    0.98   -0.42    0.11   -0.23   -0.11    0.00    0.00       0.32   -0.56   -0.27
#  27   -0.99   -0.56    0.26   -0.03   -0.13    0.00    0.00      -1.46   -0.07   -0.28
#  28   -3.06   -0.50    0.18    0.18   -0.12    0.00    0.00      -3.34    0.40   -0.28
#  29   -2.98   -0.27    0.03    0.20   -0.08    0.00    0.00      -3.10    0.69   -0.28
#  30   -1.36   -0.16    0.01    0.13   -0.04    0.00    0.00      -1.43    0.84   -0.28
#  31   -0.49   -0.36    0.09    0.34   -0.08    0.00    0.00      -0.50    1.25   -0.28
#  32    0.32   -0.60    0.43    0.64   -0.10    0.00    0.00       0.68    1.66   -0.25
#  33    1.54   -0.81    0.37    0.77   -0.13    0.00    0.00       1.74    1.32   -0.22
#  34    1.18   -0.78    0.57    0.33   -0.15    0.00    0.00       1.15    0.62   -0.28
@<TRIPOS>MOLECULE
E3281130
   34    36     0     0     0
SMALL
USER_CHARGES


@<TRIPOS>ATOM
      1 Cl1        13.1313   15.9720   66.6543 Cl        1            -0.0679
      2 C1         14.6533   15.6650   65.8778 C.ar      1            -0.0726
      3 C2         15.6770   15.0546   66.5806 C.ar      1            -0.0682
      4 C3         16.8890   14.8100   65.9646 C.ar      1            -0.1353
      5 C4         17.0793   15.1763   64.6402 C.ar      1             0.1330
      6 O1         18.2709   14.9359   64.0322 O.3       1            -0.2919
      7 C5         19.2835   14.3027   64.8168 C.3       1             0.0124
      8 C6         20.5245   14.1189   63.9817 C.2       1             0.3981
      9 O2         20.9642   13.0058   63.7856 O.2       1            -0.4242
     10 C7         21.2022   15.2894   63.4043 C.ar      1            -0.1678
     11 C8         20.5167   16.1215   62.5295 C.ar      1            -0.0238
     12 C9         21.1701   17.2352   61.9835 C.ar      1            -0.0687
     13 C10        20.5088   18.1017   61.0941 C.ar      1            -0.0940
     14 C11        21.1711   19.1746   60.5817 C.ar      1            -0.1179
     15 C12        22.4975   19.4290   60.9252 C.ar      1            -0.0989
     16 C13        23.1694   18.6119   61.7825 C.ar      1            -0.1149
     17 C14        22.5203   17.4946   62.3329 C.ar      1            -0.0278
     18 C15        23.1886   16.6328   63.2225 C.ar      1            -0.1091
     19 C16        22.5411   15.5622   63.7471 C.ar      1            -0.0875
     20 C17        16.0517   15.7877   63.9370 C.ar      1            -0.1994
     21 C18        14.8393   16.0260   64.5550 C.ar      1            -0.0680
     22 H1         15.5284   14.7697   67.6118 H         1             0.1425
     23 H2         17.6879   14.3341   66.5138 H         1             0.1431
     24 H3         19.5159   14.9251   65.6808 H         1             0.1016
     25 H4         18.9260   13.3302   65.1550 H         1             0.1016
     26 H5         19.4889   15.9123   62.2715 H         1             0.1427
     27 H6         19.4811   17.9164   60.8190 H         1             0.1326
     28 H7         20.6615   19.8381   59.8989 H         1             0.1285
     29 H8         23.0004   20.2872   60.5046 H         1             0.1280
     30 H9         24.1975   18.8223   62.0383 H         1             0.1320
     31 H10        24.2165   16.8266   63.4912 H         1             0.1356
     32 H11        23.0599   14.9087   64.4326 H         1             0.1309
     33 H12        16.1979   16.0736   62.9058 H         1             0.1374
     34 H13        14.0376   16.4980   64.0065 H         1             0.1379
@<TRIPOS>BOND
     1    1    2 1 
     2    2   21 ar
     3    2    3 ar
     4    3    4 ar
     5    3   22 1 
     6    4    5 ar
     7    4   23 1 
     8    5    6 1 
     9    5   20 ar
    10    6    7 1 
    11    7    8 1 
    12    7   24 1 
    13    7   25 1 
    14    8    9 2 
    15    8   10 1 
    16   10   19 ar
    17   10   11 ar
    18   11   12 ar
    19   11   26 1 
    20   12   17 ar
    21   12   13 ar
    22   13   14 ar
    23   13   27 1 
    24   14   15 ar
    25   14   28 1 
    26   15   16 ar
    27   15   29 1 
    28   16   17 ar
    29   16   30 1 
    30   17   18 ar
    31   18   19 ar
    32   18   31 1 
    33   19   32 1 
    34   20   21 ar
    35   20   33 1 
    36   21   34 1 
##########                 Name:             E2994584
##########          Protonation:                  100
##########               SMILES:   Cc1ccc(cc1)C(=O)OCc2nc3ccccc3s2
##########            Long Name:   1,3-benzothiazol-2-ylmethyl
##########          FlexRecCode: 1
##########               Number:                    4
##########   Ligand Source File: /raidb/db2/rgc/leads-emolecules-300/leads-lt300-emolecules-1-0000238.db2.gz
##########           GlobalRank: 4649
##########                 Rank:                    1
##########               Setnum:                  287
##########             Matchnum:                  768
##########                Cloud:                    1
##########        Electrostatic:            -6.334999
##########        Van der Waals:           -32.998211
##########  Ligand Polar Desolv:             4.478174
########## Ligand Apolar Desolv:            -4.962550
##########      Internal Energy:             0.000000
##########      Receptor Energy: 0.0
########## Receptor Desolvation:             0.000000
########## Receptor Hydrophobic:             0.000000
##########         Total Energy: -39.82
##########        Ligand Charge:             0.000000
##########            Arbitrary:    +999.9990
##########     heavy atom count:   20
##########           pose count:    1
##########        Ligand Energy:             0.000000
# num electro vdwattr vdwrepu polsolv apolsol rdesolv rhydroe totalscore fullpol fullapo
#   1   -1.38   -2.10    0.85   -0.31   -0.13    0.00    0.00      -3.07   -0.47   -0.20
#   2   -0.59   -2.36    0.49   -0.03   -0.27    0.00    0.00      -2.76   -0.04   -0.41
#   3   -1.65   -3.04    1.21   -0.01   -0.28    0.00    0.00      -3.77   -0.01   -0.45
#   4   -0.63   -3.23    1.32    0.10   -0.27    0.00    0.00      -2.72    0.16   -0.46
#   5   -1.83   -2.54    0.94    0.39   -0.25    0.00    0.00      -3.30    0.64   -0.41
#   6   -0.54   -2.64    0.66    0.08   -0.30    0.00    0.00      -2.75    0.12   -0.46
#   7   -1.42   -3.05    1.28   -0.03   -0.29    0.00    0.00      -3.52   -0.05   -0.45
#   8    5.92   -2.28    0.83   -1.78   -0.10    0.00    0.00       2.60   -2.96   -0.16
#   9   -6.53   -2.01    0.39    2.42   -0.22    0.00    0.00      -5.95    4.27   -0.39
#  10   -2.20   -2.16    0.92    1.06    0.17    0.00    0.00      -2.20    1.79    0.29
#  11    0.63   -1.66    0.61   -0.40   -0.07    0.00    0.00      -0.90   -0.65   -0.12
#  12    0.34   -1.76    0.32   -0.18   -0.38    0.00    0.00      -1.67   -0.31   -0.64
#  13   -2.21   -1.60    0.31    1.98    0.97    0.00    0.00      -0.56    3.98    1.95
#  14    0.11   -1.65    0.35   -0.03   -0.33    0.00    0.00      -1.56   -0.07   -0.76
#  15    0.05   -1.69    0.30    0.09   -0.20    0.00    0.00      -1.45    0.21   -0.47
#  16    0.46   -2.41    1.22   -0.07   -0.18    0.00    0.00      -0.98   -0.17   -0.47
#  17    0.31   -2.61    1.78   -0.08   -0.17    0.00    0.00      -0.77   -0.22   -0.48
#  18    0.11   -2.07    0.80   -0.02   -0.19    0.00    0.00      -1.37   -0.05   -0.47
#  19    0.01   -1.94    0.59    0.29   -0.15    0.00    0.00      -1.21    0.62   -0.33
#  20    0.32   -4.35    1.56   -0.27   -0.47    0.00    0.00      -3.22   -0.47   -0.81
#  21    0.80   -0.91    1.21    0.23   -0.16    0.00    0.00       1.17    0.41   -0.28
#  22    0.66   -0.88    0.89    0.22   -0.16    0.00    0.00       0.74    0.39   -0.28
#  23    0.91   -0.84    0.40    0.26   -0.19    0.00    0.00       0.55    0.39   -0.28
#  24    0.89   -1.00    1.07    0.25   -0.15    0.00    0.00       1.05    0.46   -0.28
#  25    1.24   -0.97    0.66   -0.23   -0.16    0.00    0.00       0.55   -0.38   -0.27
#  26    0.69   -0.53    0.08   -0.12   -0.16    0.00    0.00      -0.04   -0.20   -0.27
#  27    0.90   -0.89    0.45    0.29   -0.16    0.00    0.00       0.58    0.50   -0.28
#  28    0.01   -0.73    0.31   -0.28   -0.17    0.00    0.00      -0.86   -0.47   -0.28
#  29    0.51   -0.68    0.43   -0.13   -0.15    0.00    0.00      -0.02   -0.24   -0.28
#  30   -0.13   -0.35    0.06   -0.10   -0.10    0.00    0.00      -0.61   -0.28   -0.28
#  31   -0.96   -0.64    0.52    0.31   -0.09    0.00    0.00      -0.86    0.97   -0.28
#  32   -0.79   -0.60    0.65    0.37   -0.07    0.00    0.00      -0.44    1.43   -0.28
#  33   -0.34   -0.36    0.08    0.19   -0.09    0.00    0.00      -0.52    0.61   -0.28
@<TRIPOS>MOLECULE
E2994584
   33    35     0     0     0
SMALL
USER_CHARGES


@<TRIPOS>ATOM
      1 C1         12.7915   16.4143   66.5047 C.3       1            -0.1239
      2 C2         14.1168   16.0549   65.8839 C.ar      1            -0.0453
      3 C3         14.3385   16.3044   64.5411 C.ar      1            -0.1334
      4 C4         15.5493   15.9776   63.9664 C.ar      1            -0.0468
      5 C5         16.5522   15.3942   64.7430 C.ar      1            -0.1350
      6 C6         16.3218   15.1453   66.0975 C.ar      1            -0.0550
      7 C7         15.1084   15.4821   66.6607 C.ar      1            -0.1352
      8 C8         17.8512   15.0414   64.1343 C.2       1             0.5164
      9 O1         18.2793   15.6877   63.1992 O.2       1            -0.4986
     10 O2         18.5610   14.0028   64.6163 O.3       1            -0.3422
     11 C9         19.3905   13.2984   63.6901 C.3       1             0.1574
     12 C10        20.7602   13.9265   63.6642 C.2       1             0.0828
     13 N1         21.0561   15.1927   63.6195 N.2       1            -0.4865
     14 C11        22.3312   15.6325   63.6011 C.ar      1             0.0744
     15 C12        22.8338   16.9497   63.5536 C.ar      1            -0.0532
     16 C13        24.1757   17.1785   63.5415 C.ar      1            -0.1096
     17 C14        25.0916   16.1360   63.5750 C.ar      1            -0.0885
     18 C15        24.6372   14.8314   63.6222 C.ar      1            -0.0662
     19 C16        23.2849   14.5900   63.6349 C.ar      1            -0.1626
     20 S1         22.2525   13.1487   63.6938 S.3       1             0.1193
     21 H1         12.1415   16.8509   65.7464 H         1             0.0786
     22 H2         12.3248   15.5166   66.9102 H         1             0.0724
     23 H3         12.9496   17.1357   67.3065 H         1             0.0721
     24 H4         13.5617   16.7553   63.9414 H         1             0.1349
     25 H5         15.7208   16.1725   62.9180 H         1             0.1398
     26 H6         17.0933   14.6940   66.7037 H         1             0.1380
     27 H7         14.9304   15.2942   67.7091 H         1             0.1329
     28 H8         19.4746   12.2561   63.9976 H         1             0.1072
     29 H9         18.9485   13.3492   62.6951 H         1             0.1034
     30 H10        22.1483   17.7837   63.5265 H         1             0.1355
     31 H11        24.5364   18.1958   63.5047 H         1             0.1376
     32 H12        26.1515   16.3426   63.5637 H         1             0.1417
     33 H13        25.3382   14.0102   63.6490 H         1             0.1374
@<TRIPOS>BOND
     1    1    2 1 
     2    1   21 1 
     3    1   22 1 
     4    1   23 1 
     5    2    7 ar
     6    2    3 ar
     7    3    4 ar
     8    3   24 1 
     9    4    5 ar
    10    4   25 1 
    11    5    6 ar
    12    5    8 1 
    13    6    7 ar
    14    6   26 1 
    15    7   27 1 
    16    8    9 2 
    17    8   10 1 
    18   10   11 1 
    19   11   12 1 
    20   11   28 1 
    21   11   29 1 
    22   12   20 1 
    23   12   13 2 
    24   13   14 1 
    25   14   19 ar
    26   14   15 ar
    27   15   16 ar
    28   15   30 1 
    29   16   17 ar
    30   16   31 1 
    31   17   18 ar
    32   17   32 1 
    33   18   19 ar
    34   18   33 1 
    35   19   20 1 
##########                 Name:            E48261406
##########          Protonation:                   15
##########               SMILES:   c1ccc2c(c1)cc/c(=[NH+]\CCNCc3ccncc3)/[nH]2
##########            Long Name:   (E)-2-(4-pyridylmethylamino)ethyl-(1H-quinolin-2-ylidene)ammonium
##########          FlexRecCode: 1
##########               Number:                  456
##########   Ligand Source File: /raidb/db2/rgc/leads-emolecules-300/leads-lt300-emolecules-1i-0000201.db2.gz
##########           GlobalRank: 4649
##########                 Rank:                    1
##########               Setnum:                  154
##########             Matchnum:                 2440
##########                Cloud:                    1
##########        Electrostatic:           -23.387800
##########        Van der Waals:           -21.605598
##########  Ligand Polar Desolv:             6.797086
########## Ligand Apolar Desolv:            -1.625332
##########      Internal Energy:             0.000000
##########      Receptor Energy: 0.0
########## Receptor Desolvation:             0.000000
########## Receptor Hydrophobic:             0.000000
##########         Total Energy: -39.82
##########        Ligand Charge:             1.000000
##########            Arbitrary:    +999.9990
##########     heavy atom count:   21
##########           pose count:    1
##########        Ligand Energy:             0.000000
# num electro vdwattr vdwrepu polsolv apolsol rdesolv rhydroe totalscore fullpol fullapo
#   1   -0.31   -0.98    0.20    0.41   -0.20    0.00    0.00      -0.88    0.90   -0.43
#   2   -1.48   -0.98    0.10    1.19   -0.20    0.00    0.00      -1.36    2.43   -0.40
#   3   14.75   -2.25    0.69   -7.53    0.76    0.00    0.00       6.42  -15.69    1.59
#   4  -10.83   -0.04    0.00    5.41    0.24    0.00    0.00      -5.23   12.85    0.57
#   5  -14.21   -2.27    0.90    5.66   -0.83    0.00    0.00     -10.74   14.14   -2.06
#   6   18.06   -4.21    5.74   -5.55    0.40    0.00    0.00      14.44  -14.58    1.04
#   7   -2.70   -2.22    1.99    1.01   -0.22    0.00    0.00      -2.15    3.11   -0.69
#   8    1.39   -2.08    1.59   -0.90   -0.15    0.00    0.00      -0.16   -2.71   -0.46
#   9   -0.11   -1.44    0.34   -0.52   -0.16    0.00    0.00      -1.89   -1.56   -0.47
#  10   -0.32   -1.12    0.21   -0.75   -0.14    0.00    0.00      -2.12   -2.52   -0.47
#  11   -0.01   -0.81    0.08   -0.31   -0.11    0.00    0.00      -1.17   -1.27   -0.46
#  12    1.18   -1.03    0.20   -0.75   -0.11    0.00    0.00      -0.51   -2.71   -0.40
#  13   -0.76   -0.81    0.07    0.10   -0.12    0.00    0.00      -1.52    0.37   -0.46
#  14    4.70   -1.31    0.34   -1.65   -0.14    0.00    0.00       1.93   -4.93   -0.42
#  15    1.59   -1.62    0.68   -5.60    1.14    0.00    0.00      -3.81  -13.36    2.71
#  16    0.34   -1.16    0.29    0.81   -0.20    0.00    0.00       0.08    1.82   -0.44
#  17   -0.17   -1.67    0.41   -0.24   -0.19    0.00    0.00      -1.86   -0.49   -0.38
#  18   -0.74   -1.66    0.27   -0.88   -0.27    0.00    0.00      -3.28   -1.49   -0.46
#  19    0.33   -2.46    0.46    0.14   -0.63    0.00    0.00      -2.16    0.22   -0.98
#  20   -2.84   -4.45    2.62   -1.31    1.33    0.00    0.00      -4.65   -2.01    2.05
#  21    0.23   -3.55    1.77    0.15   -0.56    0.00    0.00      -1.95    0.27   -0.98
#  22   -0.16   -1.97    0.54   -0.85   -0.23    0.00    0.00      -2.67   -1.70   -0.46
#  23   -0.42   -0.24    0.02    0.45   -0.08    0.00    0.00      -0.27    1.63   -0.28
#  24   -0.50   -0.90    2.35    0.74   -0.10    0.00    0.00       1.59    2.03   -0.28
#  25   -2.10   -0.29    0.04    1.35   -0.09    0.00    0.00      -1.09    4.06   -0.26
#  26   -2.13   -0.39    0.06    1.42   -0.12    0.00    0.00      -1.17    3.29   -0.28
#  27  -19.70   -0.42    0.50    5.09    0.25    0.00    0.00     -14.27   11.92    0.59
#  28   -2.05   -0.35    0.09    0.90   -0.08    0.00    0.00      -1.49    3.27   -0.28
#  29    0.39   -0.34    0.14    0.62   -0.09    0.00    0.00       0.73    2.04   -0.28
#  30    0.43   -0.28    0.14    0.41   -0.06    0.00    0.00       0.63    1.79   -0.28
#  31    0.22   -0.10    0.00    0.32   -0.03    0.00    0.00       0.41    2.98   -0.28
#  32   -1.51   -0.10    0.00    0.42   -0.03    0.00    0.00      -1.21    4.69   -0.28
#  33   -3.83   -0.25    0.05    1.40   -0.05    0.00    0.00      -2.68    6.46   -0.25
#  34   -1.87   -0.03    0.00    1.73    0.14    0.00    0.00      -0.03    7.10    0.57
#  35    0.08   -0.41    0.11    0.43   -0.10    0.00    0.00       0.11    1.19   -0.28
#  36    0.88   -0.60    0.42    0.56   -0.10    0.00    0.00       1.16    1.53   -0.28
#  37    1.05   -0.28    0.02    0.73   -0.10    0.00    0.00       1.43    2.05   -0.28
#  38    0.11   -0.69    0.28    0.67   -0.17    0.00    0.00       0.19    1.11   -0.28
#  39   -0.28   -1.34    2.08    0.68   -0.15    0.00    0.00       0.99    1.31   -0.28
#  40   -0.09   -0.32    0.06    0.83   -0.09    0.00    0.00       0.39    2.62   -0.28
@<TRIPOS>MOLECULE
E48261406
   40    42     0     0     0
SMALL
USER_CHARGES


@<TRIPOS>ATOM
      1 C1         21.5548   18.3340   62.0266 C.3       1             0.0407
      2 C2         21.5585   18.7397   60.5514 C.3       1             0.0847
      3 N1         21.5706   20.2009   60.4469 N.pl3     1            -0.6084
      4 H1         20.7345   20.6916   60.4120 H         1             0.4285
      5 C3         22.7119   20.8457   60.4003 C.cat     1             0.5457
      6 N2         22.7531   22.2289   60.3070 N.pl3     1            -0.6225
      7 C4         23.7505   22.8838   61.0163 C.ar      1             0.1639
      8 C5         23.5986   24.2040   61.4148 C.ar      1            -0.1417
      9 C6         24.6077   24.8277   62.1193 C.ar      1            -0.0463
     10 C7         25.7744   24.1455   62.4335 C.ar      1            -0.1219
     11 C8         25.9445   22.8352   62.0467 C.ar      1            -0.0464
     12 C9         24.9318   22.1878   61.3320 C.ar      1            -0.1340
     13 C10        25.0843   20.7920   60.9059 C.2       1             0.0596
     14 C11        23.9955   20.1289   60.4510 C.2       1            -0.2267
     15 N3         21.5426   16.8688   62.1315 N.3       1            -0.6772
     16 C12        21.5386   16.4416   63.5369 C.3       1             0.1010
     17 C13        21.5262   14.9361   63.6044 C.ar      1            -0.0517
     18 C14        20.3294   14.2367   63.6300 C.ar      1            -0.1502
     19 C15        20.3573   12.8563   63.6921 C.ar      1             0.1025
     20 N4         21.5037   12.2057   63.7272 N.ar      1            -0.4789
     21 C16        22.6608   12.8378   63.7045 C.ar      1             0.1031
     22 C17        22.7115   14.2173   63.6366 C.ar      1            -0.1684
     23 H2         22.4478   18.7257   62.5136 H         1             0.0500
     24 H3         20.6679   18.7404   62.5129 H         1             0.0931
     25 H4         22.4454   18.3333   60.0651 H         1             0.1069
     26 H5         20.6654   18.3479   60.0646 H         1             0.1223
     27 H6         22.1116   22.7183   59.7684 H         1             0.4410
     28 H7         22.6935   24.7419   61.1738 H         1             0.1450
     29 H8         24.4886   25.8557   62.4287 H         1             0.1485
     30 H9         26.5555   24.6466   62.9858 H         1             0.1468
     31 H10        26.8552   22.3101   62.2940 H         1             0.1512
     32 H11        26.0458   20.3028   60.9576 H         1             0.1738
     33 H12        24.0693   19.1002   60.1304 H         1             0.1837
     34 H13        22.3207   16.4642   61.6327 H         1             0.3510
     35 H14        22.4316   16.8202   64.0343 H         1             0.0520
     36 H15        20.6518   16.8348   64.0338 H         1             0.0920
     37 H16        19.3873   14.7639   63.6021 H         1             0.1367
     38 H17        19.4293   12.3041   63.7122 H         1             0.1597
     39 H18        23.5795   12.2709   63.7351 H         1             0.1587
     40 H19        23.6622   14.7291   63.6133 H         1             0.1321
@<TRIPOS>BOND
     1    1    2 1 
     2    1   15 1 
     3    1   23 1 
     4    1   24 1 
     5    2    3 1 
     6    2   25 1 
     7    2   26 1 
     8    3    4 1 
     9    3    5 2 
    10    5   14 1 
    11    5    6 1 
    12    6    7 1 
    13    6   27 1 
    14    7   12 ar
    15    7    8 ar
    16    8    9 ar
    17    8   28 1 
    18    9   10 ar
    19    9   29 1 
    20   10   11 ar
    21   10   30 1 
    22   11   12 ar
    23   11   31 1 
    24   12   13 1 
    25   13   14 2 
    26   13   32 1 
    27   14   33 1 
    28   15   16 1 
    29   15   34 1 
    30   16   17 1 
    31   16   35 1 
    32   16   36 1 
    33   17   22 ar
    34   17   18 ar
    35   18   19 ar
    36   18   37 1 
    37   19   20 ar
    38   19   38 1 
    39   20   21 ar
    40   21   22 ar
    41   21   39 1 
    42   22   40 1 
##########                 Name:            E26482729
##########          Protonation:                   30
##########               SMILES:   [H]/N=C(/c1ccc2c(c1)non2)\NOC(=O)Nc3ccccc3
##########            Long Name:   (2,1,3-benzoxadiazole-5-carboximidoylamino)
##########          FlexRecCode: 1
##########               Number:                  642
##########   Ligand Source File: /raidb/db2/rgc/leads-emolecules-300/leads-emolecules-2h-0000337.db2.gz
##########           GlobalRank: 4666
##########                 Rank:                    1
##########               Setnum:                   18
##########             Matchnum:                 3832
##########                Cloud:                    1
##########        Electrostatic:            -7.076465
##########        Van der Waals:           -36.193863
##########  Ligand Polar Desolv:             5.492323
########## Ligand Apolar Desolv:            -2.034532
##########      Internal Energy:             0.000000
##########      Receptor Energy: 0.0
########## Receptor Desolvation:             0.000000
########## Receptor Hydrophobic:             0.000000
##########         Total Energy: -39.81
##########        Ligand Charge:             0.000000
##########            Arbitrary:    +999.9990
##########     heavy atom count:   22
##########           pose count:    1
##########        Ligand Energy:             0.000000
# num electro vdwattr vdwrepu polsolv apolsol rdesolv rhydroe totalscore fullpol fullapo
#   1   -9.64   -2.57    1.20    0.09    0.67    0.00    0.00     -10.24    0.17    1.28
#   2    4.83   -1.78    0.27    0.52   -1.24    0.00    0.00       2.60    0.91   -2.19
#   3   -3.30   -1.67    0.20   -0.94    0.38    0.00    0.00      -5.33   -1.58    0.63
#   4   -0.38   -1.50    0.58   -0.11   -0.34    0.00    0.00      -1.75   -0.19   -0.60
#   5    1.67   -2.11    0.51    0.20   -0.29    0.00    0.00      -0.01    0.37   -0.53
#   6   -2.62   -3.15    1.38    0.59   -0.19    0.00    0.00      -4.00    0.95   -0.31
#   7    0.60   -2.12    0.55   -0.71    1.12    0.00    0.00      -0.55   -1.46    2.30
#   8   -0.30   -1.46    0.25    0.04   -0.28    0.00    0.00      -1.75    0.09   -0.68
#   9    0.59   -1.05    0.10   -0.14   -0.17    0.00    0.00      -0.66   -0.37   -0.46
#  10    0.62   -0.82    0.07   -0.09   -0.13    0.00    0.00      -0.36   -0.31   -0.47
#  11    0.97   -1.19    0.28   -0.08   -0.14    0.00    0.00      -0.15   -0.26   -0.47
#  12    0.47   -1.70    0.34   -0.02   -0.19    0.00    0.00      -1.10   -0.05   -0.47
#  13    0.08   -1.80    0.44    0.05   -0.17    0.00    0.00      -1.39    0.13   -0.40
#  14   -0.07   -2.12    0.54    0.06   -0.25    0.00    0.00      -1.85    0.09   -0.40
#  15   -0.14   -2.53    0.75   -0.01   -0.27    0.00    0.00      -2.20   -0.02   -0.45
#  16    1.13   -2.55    0.91   -0.14   -0.52    0.00    0.00      -1.18   -0.22   -0.83
#  17   -3.07   -2.31    0.46    1.09    0.82    0.00    0.00      -3.00    1.68    1.26
#  18    0.71   -2.03    0.35   -0.02   -0.39    0.00    0.00      -1.38   -0.03   -0.59
#  19   -1.66   -3.76    1.33    0.88    0.81    0.00    0.00      -2.39    1.33    1.23
#  20    0.62   -3.04    0.88   -0.06   -0.55    0.00    0.00      -2.15   -0.09   -0.84
#  21   -0.14   -3.72    1.38   -0.17   -0.32    0.00    0.00      -2.97   -0.25   -0.48
#  22   -0.50   -2.75    0.76   -0.22   -0.27    0.00    0.00      -2.98   -0.35   -0.44
#  23    2.25   -0.03    0.00    0.01    0.22    0.00    0.00       2.45    0.02    0.53
#  24    1.64   -0.03    0.00    0.98    0.18    0.00    0.00       2.77    1.95    0.36
#  25   -1.53   -0.04    0.00    1.03    0.25    0.00    0.00      -0.30    2.44    0.60
#  26   -0.60   -0.22    0.02    0.25   -0.08    0.00    0.00      -0.63    0.90   -0.28
#  27   -0.72   -0.11    0.00    0.10   -0.03    0.00    0.00      -0.76    0.87   -0.28
#  28   -1.16   -0.18    0.02    0.09   -0.04    0.00    0.00      -1.26    0.60   -0.28
#  29   -0.56   -0.42    0.06    0.10   -0.11    0.00    0.00      -0.93    0.26   -0.28
#  30    0.42   -0.50    0.22   -0.10   -0.08    0.00    0.00      -0.05   -0.26   -0.22
#  31    2.50   -0.58    0.13   -0.01   -0.14    0.00    0.00       1.91   -0.01   -0.26
#  32   -0.59   -1.22    0.66    1.17   -0.18    0.00    0.00      -0.17    1.78   -0.28
#  33    0.79   -0.82    1.04    1.05   -0.11    0.00    0.00       1.95    2.04   -0.22
@<TRIPOS>MOLECULE
E26482729
   33    35     0     0     0
SMALL
USER_CHARGES


@<TRIPOS>ATOM
      1 N1         18.9403   16.1678   62.8465 N.2       1            -0.7168
      2 C1         18.8849   15.1757   63.6922 C.2       1             0.4652
      3 N2         19.8479   14.1990   63.6678 N.pl3     1            -0.5926
      4 O1         21.1638   14.5125   63.2489 O.3       1            -0.1227
      5 C2         22.1148   13.7594   63.8258 C.2       1             0.6380
      6 O2         21.8061   12.9009   64.6291 O.2       1            -0.5393
      7 N3         23.4113   13.9560   63.5141 N.am      1            -0.6403
      8 C3         23.8560   15.2294   63.1412 C.ar      1             0.1452
      9 C4         24.9194   15.3642   62.2584 C.ar      1            -0.1347
     10 C5         25.3555   16.6223   61.8920 C.ar      1            -0.1002
     11 C6         24.7349   17.7472   62.4036 C.ar      1            -0.1251
     12 C7         23.6760   17.6163   63.2832 C.ar      1            -0.1009
     13 C8         23.2311   16.3610   63.6488 C.ar      1            -0.1165
     14 C9         17.7826   15.1040   64.6782 C.ar      1            -0.0062
     15 C10        16.5697   15.6327   64.3500 C.ar      1            -0.0091
     16 C11        15.4975   15.5781   65.2738 C.ar      1             0.0841
     17 N4         14.2518   15.9927   65.2375 N.2       1            -0.2394
     18 O3         13.6434   15.6561   66.4726 O.3       1             0.0673
     19 N5         14.6135   15.0015   67.2720 N.2       1            -0.2496
     20 C12        15.7289   14.9399   66.5847 C.ar      1             0.0852
     21 C13        17.0571   14.3943   66.8662 C.ar      1            -0.0587
     22 C14        18.0209   14.4860   65.9231 C.ar      1            -0.0785
     23 H1         19.6624   16.2147   62.2005 H         1             0.3537
     24 H2         19.6276   13.2937   63.9376 H         1             0.4254
     25 H3         24.0360   13.2149   63.5483 H         1             0.4215
     26 H4         25.4050   14.4861   61.8590 H         1             0.1296
     27 H5         26.1825   16.7279   61.2055 H         1             0.1312
     28 H6         25.0781   18.7299   62.1158 H         1             0.1276
     29 H7         23.1938   18.4966   63.6817 H         1             0.1298
     30 H8         22.4011   16.2593   64.3324 H         1             0.1410
     31 H9         16.4262   16.0943   63.3841 H         1             0.1735
     32 H10        17.2636   13.9202   67.8143 H         1             0.1632
     33 H11        18.9999   14.0796   66.1300 H         1             0.1492
@<TRIPOS>BOND
     1    1    2 2 
     2    1   23 1 
     3    2    3 1 
     4    2   14 1 
     5    3    4 1 
     6    3   24 1 
     7    4    5 1 
     8    5    6 2 
     9    5    7 am
    10    7    8 1 
    11    7   25 1 
    12    8   13 ar
    13    8    9 ar
    14    9   10 ar
    15    9   26 1 
    16   10   11 ar
    17   10   27 1 
    18   11   12 ar
    19   11   28 1 
    20   12   13 ar
    21   12   29 1 
    22   13   30 1 
    23   14   22 ar
    24   14   15 ar
    25   15   16 ar
    26   15   31 1 
    27   16   20 ar
    28   16   17 2 
    29   17   18 1 
    30   18   19 1 
    31   19   20 2 
    32   20   21 ar
    33   21   22 ar
    34   21   32 1 
    35   22   33 1 
##########                 Name:            E27344597
##########          Protonation:                  100
##########               SMILES:   c1ccc(cc1)/C=C(\C#N)/C(=O)Nc2ccc(cc2)Cl
##########            Long Name:   (E)-N-(4-chlorophenyl)-2-cyano-3-phenyl-prop-2-enamide
##########          FlexRecCode: 1
##########               Number:                  551
##########   Ligand Source File: /raidb/db2/rgc/leads-emolecules-300/leads-lt300-emolecules-1-0000153.db2.gz
##########           GlobalRank: 4666
##########                 Rank:                    1
##########               Setnum:                    6
##########             Matchnum:                 6106
##########                Cloud:                    1
##########        Electrostatic:            -8.054874
##########        Van der Waals:           -30.939758
##########  Ligand Polar Desolv:             3.102275
########## Ligand Apolar Desolv:            -3.922159
##########      Internal Energy:             0.000000
##########      Receptor Energy: 0.0
########## Receptor Desolvation:             0.000000
########## Receptor Hydrophobic:             0.000000
##########         Total Energy: -39.81
##########        Ligand Charge:             0.000000
##########            Arbitrary:    +999.9990
##########     heavy atom count:   20
##########           pose count:    1
##########        Ligand Energy:             0.000000
# num electro vdwattr vdwrepu polsolv apolsol rdesolv rhydroe totalscore fullpol fullapo
#   1   -0.74   -4.24    1.19    0.11   -0.65    0.00    0.00      -4.34    0.17   -0.99
#   2   -0.65   -2.44    0.79    0.08   -0.19    0.00    0.00      -2.41    0.12   -0.30
#   3   -0.74   -2.88    0.82    0.00   -0.30    0.00    0.00      -3.10    0.00   -0.46
#   4   -0.97   -2.74    0.65   -0.06   -0.30    0.00    0.00      -3.42   -0.10   -0.46
#   5    1.72   -2.22    0.60   -0.08   -0.43    0.00    0.00      -0.41   -0.12   -0.68
#   6   -5.98   -1.88    0.29   -0.10    0.95    0.00    0.00      -6.71   -0.17    1.65
#   7    5.97   -1.73    0.30   -0.13   -0.34    0.00    0.00       4.06   -0.25   -0.64
#   8   -9.21   -2.76    2.46    0.75    0.17    0.00    0.00      -8.59    1.43    0.33
#   9   -0.64   -1.62    0.37   -0.08   -0.20    0.00    0.00      -2.17   -0.16   -0.40
#  10    0.12   -1.50    0.31    0.15   -0.19    0.00    0.00      -1.11    0.36   -0.44
#  11    0.30   -1.33    0.32   -0.09   -0.15    0.00    0.00      -0.95   -0.23   -0.40
#  12    0.61   -1.63    0.99    0.02   -0.13    0.00    0.00      -0.14    0.06   -0.39
#  13    0.76   -1.16    0.21    0.00   -0.16    0.00    0.00      -0.35    0.00   -0.47
#  14    0.37   -0.87    0.05   -0.07   -0.16    0.00    0.00      -0.68   -0.19   -0.47
#  15    0.38   -1.42    0.25   -0.17   -0.18    0.00    0.00      -1.14   -0.44   -0.47
#  16    0.09   -1.93    0.68   -0.11   -0.19    0.00    0.00      -1.46   -0.26   -0.45
#  17    0.78   -1.87    0.42   -0.15   -0.57    0.00    0.00      -1.39   -0.25   -0.99
#  18   -1.61   -2.88    0.73    0.94    0.42    0.00    0.00      -2.41    1.52    0.68
#  19   -1.67   -2.68    0.83    0.17   -0.24    0.00    0.00      -3.58    0.28   -0.40
#  20   -1.19   -3.02    1.19    0.11   -0.27    0.00    0.00      -3.18    0.19   -0.46
#  21    0.65   -0.71    0.19    0.19   -0.16    0.00    0.00       0.15    0.32   -0.28
#  22    0.35   -0.67    0.14    0.38   -0.17    0.00    0.00       0.04    0.63   -0.28
#  23    2.45   -0.03    0.00    0.35    0.22    0.00    0.00       2.98    0.82    0.52
#  24    0.30   -0.31    0.05    0.34   -0.08    0.00    0.00       0.30    1.10   -0.27
#  25   -1.28   -0.42    0.25   -0.05   -0.05    0.00    0.00      -1.53   -0.18   -0.17
#  26   -0.94   -0.28    0.05    0.02   -0.08    0.00    0.00      -1.23    0.06   -0.28
#  27   -0.35   -0.13    0.00    0.08   -0.04    0.00    0.00      -0.43    0.60   -0.28
#  28   -0.22   -0.36    0.11    0.28   -0.08    0.00    0.00      -0.27    0.97   -0.28
#  29    0.28   -0.94    1.35    0.49   -0.11    0.00    0.00       1.07    1.23   -0.28
#  30    2.05   -0.62    0.23   -0.21   -0.10    0.00    0.00       1.33   -0.41   -0.20
#  31    0.96   -1.07    1.59   -0.06   -0.16    0.00    0.00       1.26   -0.11   -0.28
@<TRIPOS>MOLECULE
E27344597
   31    32     0     0     0
SMALL
USER_CHARGES


@<TRIPOS>ATOM
      1 Cl1        13.1969   15.9806   65.7662 Cl        1            -0.0680
      2 C1         14.8676   15.6311   65.4490 C.ar      1            -0.0513
      3 C2         15.6575   15.0761   66.4404 C.ar      1            -0.0872
      4 C3         16.9868   14.7971   66.1907 C.ar      1            -0.1353
      5 C4         17.5306   15.0736   64.9430 C.ar      1             0.1514
      6 N1         18.8767   14.7915   64.6872 N.am      1            -0.6652
      7 C5         19.5661   15.5407   63.8043 C.2       1             0.5779
      8 O1         19.0180   16.4623   63.2297 O.2       1            -0.5046
      9 C6         20.9828   15.2438   63.5350 C.2       1            -0.1385
     10 C7         21.8357   16.2499   63.1790 C.2       1             0.0871
     11 C8         23.1978   15.9338   62.7345 C.ar      1            -0.1137
     12 C9         23.6276   16.3132   61.4565 C.ar      1            -0.0903
     13 C10        24.9088   16.0122   61.0472 C.ar      1            -0.1217
     14 C11        25.7701   15.3370   61.8952 C.ar      1            -0.0891
     15 C12        25.3535   14.9578   63.1599 C.ar      1            -0.1251
     16 C13        24.0777   15.2559   63.5879 C.ar      1            -0.0750
     17 C14        21.4665   13.9007   63.6463 C.1       1             0.2430
     18 N2         21.8503   12.8351   63.7345 N.1       1            -0.3980
     19 C15        16.7355   15.6301   63.9497 C.ar      1            -0.1147
     20 C16        15.4055   15.9028   64.2032 C.ar      1            -0.0873
     21 H1         15.2342   14.8613   67.4105 H         1             0.1391
     22 H2         17.6030   14.3646   66.9652 H         1             0.1359
     23 H3         19.3137   14.0568   65.1454 H         1             0.4134
     24 H4         21.5075   17.2777   63.2249 H         1             0.1684
     25 H5         22.9568   16.8398   60.7937 H         1             0.1274
     26 H6         25.2417   16.3036   60.0620 H         1             0.1296
     27 H7         26.7727   15.1042   61.5679 H         1             0.1298
     28 H8         26.0318   14.4309   63.8147 H         1             0.1327
     29 H9         23.7561   14.9638   64.5766 H         1             0.1363
     30 H10        17.1559   15.8465   62.9786 H         1             0.1537
     31 H11        14.7858   16.3318   63.4298 H         1             0.1391
@<TRIPOS>BOND
     1    1    2 1 
     2    2   20 ar
     3    2    3 ar
     4    3    4 ar
     5    3   21 1 
     6    4    5 ar
     7    4   22 1 
     8    5    6 1 
     9    5   19 ar
    10    6    7 am
    11    6   23 1 
    12    7    8 2 
    13    7    9 1 
    14    9   10 2 
    15    9   17 1 
    16   10   11 1 
    17   10   24 1 
    18   11   16 ar
    19   11   12 ar
    20   12   13 ar
    21   12   25 1 
    22   13   14 ar
    23   13   26 1 
    24   14   15 ar
    25   14   27 1 
    26   15   16 ar
    27   15   28 1 
    28   16   29 1 
    29   17   18 3 
    30   19   20 ar
    31   19   30 1 
    32   20   31 1 
##########                 Name:            E11723677
##########          Protonation:                  100
##########               SMILES:   Cc1ccc(c(c1)Nc2c3c(c4ccccc4o3)ncn2)F
##########            Long Name:   N-(2-fluoro-5-methyl-phenyl)benzofuro[3,2-d]pyrimidin-4-amine
##########          FlexRecCode: 1
##########               Number:                  539
##########   Ligand Source File: /raidb/db2/rgc/leads-emolecules-300/leads-emolecules-2f-0000180.db2.gz
##########           GlobalRank: 4688
##########                 Rank:                    1
##########               Setnum:                   26
##########             Matchnum:                 1881
##########                Cloud:                    1
##########        Electrostatic:            -4.463131
##########        Van der Waals:           -34.660854
##########  Ligand Polar Desolv:             4.749887
########## Ligand Apolar Desolv:            -5.424563
##########      Internal Energy:             0.000000
##########      Receptor Energy: 0.0
########## Receptor Desolvation:             0.000000
########## Receptor Hydrophobic:             0.000000
##########         Total Energy: -39.8
##########        Ligand Charge:             0.000000
##########            Arbitrary:    +999.9990
##########     heavy atom count:   22
##########           pose count:    1
##########        Ligand Energy:             0.000000
# num electro vdwattr vdwrepu polsolv apolsol rdesolv rhydroe totalscore fullpol fullapo
#   1   -1.16   -1.41    0.28   -0.19   -0.13    0.00    0.00      -2.60   -0.29   -0.20
#   2   -0.82   -2.44    0.87    0.01   -0.26    0.00    0.00      -2.64    0.02   -0.41
#   3   -0.93   -3.23    1.11   -0.05   -0.30    0.00    0.00      -3.39   -0.08   -0.45
#   4   -0.77   -3.83    1.70    0.09   -0.32    0.00    0.00      -3.12    0.13   -0.47
#   5    0.54   -2.47    0.43   -0.05   -0.22    0.00    0.00      -1.77   -0.08   -0.34
#   6   -1.16   -1.64    0.57    0.49   -0.29    0.00    0.00      -2.03    0.79   -0.47
#   7    1.83   -2.35    0.64   -0.28   -0.43    0.00    0.00      -0.59   -0.46   -0.69
#   8   -8.93   -2.27    0.47    1.79    0.61    0.00    0.00      -8.31    3.04    1.04
#   9    4.18   -1.83    0.33   -1.45   -1.15    0.00    0.00       0.09   -2.51   -2.00
#  10   -0.61   -1.66    0.30    0.35   -0.17    0.00    0.00      -1.80    0.69   -0.34
#  11   -1.85   -2.16    1.07    0.58    0.16    0.00    0.00      -2.19    1.25    0.35
#  12    0.20   -1.93    0.61   -0.13   -0.15    0.00    0.00      -1.40   -0.28   -0.34
#  13    0.36   -2.00    0.42    0.00   -0.21    0.00    0.00      -1.44    0.01   -0.47
#  14    0.34   -2.56    1.30   -0.06   -0.19    0.00    0.00      -1.17   -0.15   -0.47
#  15    0.56   -2.52    1.56   -0.10   -0.17    0.00    0.00      -0.67   -0.28   -0.47
#  16    0.04   -1.83    0.56    0.04   -0.20    0.00    0.00      -1.39    0.09   -0.48
#  17   -0.16   -1.64    0.34    0.37   -0.19    0.00    0.00      -1.29    0.85   -0.44
#  18    0.63   -1.67    0.40   -0.51   -0.45    0.00    0.00      -1.61   -0.95   -0.84
#  19   -1.84   -2.03    0.33    1.76    1.24    0.00    0.00      -0.55    2.89    2.03
#  20    0.94   -2.59    0.56   -0.56   -2.04    0.00    0.00      -3.68   -0.87   -3.17
#  21   -2.75   -3.10    2.57    1.31    0.80    0.00    0.00      -1.17    2.18    1.33
#  22   -1.40   -2.86    1.49    0.20   -0.23    0.00    0.00      -2.81    0.33   -0.39
#  23    0.68   -0.49    0.13    0.14   -0.15    0.00    0.00       0.32    0.27   -0.28
#  24    0.75   -0.68    0.65    0.20   -0.15    0.00    0.00       0.78    0.38   -0.28
#  25    0.65   -0.44    0.22    0.09   -0.12    0.00    0.00       0.39    0.20   -0.28
#  26    0.84   -0.93    0.55    0.40   -0.16    0.00    0.00       0.71    0.69   -0.28
#  27    0.23   -1.40    1.36    0.12   -0.18    0.00    0.00       0.13    0.19   -0.28
#  28    6.41   -0.04    0.00   -0.91    0.29    0.00    0.00       5.75   -1.77    0.57
#  29   -0.74   -0.51    0.11    0.17   -0.12    0.00    0.00      -1.09    0.39   -0.28
#  30   -1.07   -0.74    0.68    0.47   -0.09    0.00    0.00      -0.76    1.43   -0.28
#  31   -0.81   -0.61    0.61    0.28   -0.07    0.00    0.00      -0.60    1.06   -0.28
#  32   -0.22   -0.34    0.06   -0.03   -0.09    0.00    0.00      -0.61   -0.08   -0.28
#  33   -0.14   -0.95    0.62    0.44   -0.18    0.00    0.00      -0.21    0.69   -0.28
#  34    1.71   -0.66    0.23   -0.24   -0.10    0.00    0.00       0.94   -0.45   -0.19
@<TRIPOS>MOLECULE
E11723677
   34    37     0     0     0
SMALL
USER_CHARGES


@<TRIPOS>ATOM
      1 C1         13.1255   15.6701   65.4290 C.3       1            -0.1145
      2 C2         14.6057   15.4877   65.6443 C.ar      1            -0.0709
      3 C3         15.0897   15.1956   66.9075 C.ar      1            -0.1125
      4 C4         16.4464   15.0287   67.1096 C.ar      1            -0.1250
      5 C5         17.3255   15.1520   66.0492 C.ar      1             0.0559
      6 F1         18.6518   14.9880   66.2472 F         1            -0.1397
      7 C6         16.8417   15.4444   64.7785 C.ar      1             0.1318
      8 N1         17.7274   15.5700   63.7027 N.pl3     1            -0.6398
      9 C7         18.9107   14.8463   63.6904 C.ar      1             0.4643
     10 C8         20.1473   15.5020   63.6483 C.ar      1            -0.0777
     11 O1         20.5069   16.8012   63.6134 O.3       1            -0.1856
     12 C9         21.8503   16.9405   63.5799 C.ar      1             0.1033
     13 C10        22.6755   18.0588   63.5390 C.ar      1            -0.1196
     14 C11        24.0450   17.9064   63.5115 C.ar      1            -0.0635
     15 C12        24.6154   16.6426   63.5241 C.ar      1            -0.1415
     16 C13        23.8144   15.5218   63.5646 C.ar      1            -0.0347
     17 C14        22.4299   15.6629   63.5928 C.ar      1            -0.1307
     18 C15        21.3043   14.7146   63.6379 C.ar      1             0.1726
     19 N2         21.1948   13.3890   63.6682 N.ar      1            -0.5102
     20 C16        20.0101   12.8162   63.7077 C.ar      1             0.3279
     21 N3         18.8923   13.5178   63.7240 N.ar      1            -0.5384
     22 C17        15.4773   15.6063   64.5790 C.ar      1            -0.1042
     23 H1         12.6018   15.5407   66.3761 H         1             0.0732
     24 H2         12.9351   16.6714   65.0426 H         1             0.0703
     25 H3         12.7685   14.9303   64.7125 H         1             0.0712
     26 H4         14.4043   15.1002   67.7365 H         1             0.1342
     27 H5         16.8204   14.8015   68.0970 H         1             0.1401
     28 H6         17.5138   16.1630   62.9653 H         1             0.4283
     29 H7         22.2427   19.0482   63.5284 H         1             0.1409
     30 H8         24.6799   18.7795   63.4794 H         1             0.1441
     31 H9         25.6898   16.5364   63.5019 H         1             0.1396
     32 H10        24.2593   14.5378   63.5741 H         1             0.1388
     33 H11        19.9510   11.7381   63.7317 H         1             0.2128
     34 H12        15.0979   15.8291   63.5926 H         1             0.1592
@<TRIPOS>BOND
     1    1    2 1 
     2    1   23 1 
     3    1   24 1 
     4    1   25 1 
     5    2   22 ar
     6    2    3 ar
     7    3    4 ar
     8    3   26 1 
     9    4    5 ar
    10    4   27 1 
    11    5    6 1 
    12    5    7 ar
    13    7    8 1 
    14    7   22 ar
    15    8    9 1 
    16    8   28 1 
    17    9   21 ar
    18    9   10 ar
    19   10   18 ar
    20   10   11 1 
    21   11   12 1 
    22   12   17 ar
    23   12   13 ar
    24   13   14 ar
    25   13   29 1 
    26   14   15 ar
    27   14   30 1 
    28   15   16 ar
    29   15   31 1 
    30   16   17 ar
    31   16   32 1 
    32   17   18 1 
    33   18   19 ar
    34   19   20 ar
    35   20   21 ar
    36   20   33 1 
    37   22   34 1 
##########                 Name:            E17664011
##########          Protonation:                  100
##########               SMILES:   CCc1c2c(c(c(n1)OCc3ccccc3F)C#N)CCC2
##########            Long Name:   (2-fluorophenyl)methoxy]-6,7-dihydro-5H-cyclopenta[c]pyridine-4-carbonitrile
##########          FlexRecCode: 1
##########               Number:                  232
##########   Ligand Source File: /raidb/db2/rgc/leads-emolecules-300/leads-emolecules-2h-0000131.db2.gz
##########           GlobalRank: 4688
##########                 Rank:                    1
##########               Setnum:                  107
##########             Matchnum:                 2148
##########                Cloud:                    1
##########        Electrostatic:            -8.853374
##########        Van der Waals:           -30.433395
##########  Ligand Polar Desolv:             3.920938
########## Ligand Apolar Desolv:            -4.433102
##########      Internal Energy:             0.000000
##########      Receptor Energy: 0.0
########## Receptor Desolvation:             0.000000
########## Receptor Hydrophobic:             0.000000
##########         Total Energy: -39.8
##########        Ligand Charge:             0.000000
##########            Arbitrary:    +999.9990
##########     heavy atom count:   22
##########           pose count:    1
##########        Ligand Energy:             0.000000
# num electro vdwattr vdwrepu polsolv apolsol rdesolv rhydroe totalscore fullpol fullapo
#   1    2.02   -0.86    0.08   -0.19   -0.09    0.00    0.00       0.98   -0.41   -0.19
#   2    0.48   -1.24    0.22   -0.09   -0.12    0.00    0.00      -0.74   -0.21   -0.26
#   3    0.13   -1.70    0.40   -0.01   -0.30    0.00    0.00      -1.48   -0.03   -0.67
#   4    0.20   -1.36    0.24   -0.10   -0.17    0.00    0.00      -1.19   -0.24   -0.42
#   5    0.30   -0.75    0.08   -0.13   -0.09    0.00    0.00      -0.59   -0.36   -0.26
#   6    0.54   -0.99    0.26   -0.24   -0.12    0.00    0.00      -0.55   -0.58   -0.29
#   7    0.20   -1.40    0.48   -0.11   -0.13    0.00    0.00      -0.97   -0.23   -0.28
#   8    0.03   -1.74    0.69   -0.01   -0.19    0.00    0.00      -1.21   -0.02   -0.42
#   9   -0.43   -1.63    0.35    0.26   -0.22    0.00    0.00      -1.68    0.47   -0.40
#  10    1.04   -2.02    0.33   -1.08   -0.87    0.00    0.00      -2.60   -1.75   -1.41
#  11   -0.54   -3.54    1.30    2.54    0.47    0.00    0.00       0.23    3.85    0.71
#  12    3.67   -1.87    0.48   -0.80   -0.32    0.00    0.00       1.16   -1.61   -0.65
#  13   -3.98   -1.52    0.20    0.96    0.38    0.00    0.00      -3.95    1.71    0.68
#  14    1.51   -1.72    0.59   -0.32   -0.07    0.00    0.00      -0.02   -0.54   -0.11
#  15   -1.64   -2.37    0.46    0.41   -0.27    0.00    0.00      -3.42    0.62   -0.41
#  16   -0.30   -3.37    1.14    0.22   -0.29    0.00    0.00      -2.60    0.34   -0.44
#  17   -0.47   -4.02    2.04    0.08   -0.30    0.00    0.00      -2.68    0.12   -0.47
#  18   -0.82   -2.66    1.06   -0.03   -0.31    0.00    0.00      -2.76   -0.05   -0.47
#  19   -2.06   -2.48    0.67    0.08   -0.30    0.00    0.00      -4.10    0.12   -0.47
#  20    1.96   -2.90    1.31   -0.17   -0.21    0.00    0.00      -0.01   -0.28   -0.34
#  21   -3.56   -3.05    3.84    0.40   -0.29    0.00    0.00      -2.67    0.65   -0.47
#  22   -5.65   -3.14    2.71    0.83    1.29    0.00    0.00      -3.97    1.77    2.76
#  23   -1.29   -0.30    0.05    0.11   -0.08    0.00    0.00      -1.51    0.38   -0.28
#  24   -0.89   -0.19    0.01    0.00   -0.07    0.00    0.00      -1.14    0.00   -0.28
#  25   -0.78   -0.31    0.06    0.09   -0.09    0.00    0.00      -1.03    0.27   -0.28
#  26   -0.56   -0.33    0.04    0.05   -0.10    0.00    0.00      -0.91    0.14   -0.28
#  27   -0.46   -0.82    0.42    0.35   -0.13    0.00    0.00      -0.64    0.73   -0.27
#  28   -0.61   -0.15    0.01    0.11   -0.04    0.00    0.00      -0.68    0.77   -0.28
#  29   -0.29   -0.41    0.14    0.20   -0.07    0.00    0.00      -0.43    0.76   -0.28
#  30   -0.45   -0.56    0.55    0.31   -0.11    0.00    0.00      -0.26    0.81   -0.28
#  31   -0.35   -0.22    0.02    0.11   -0.07    0.00    0.00      -0.51    0.43   -0.28
#  32   -0.36   -0.80    0.76    0.16   -0.13    0.00    0.00      -0.36    0.35   -0.28
#  33   -0.05   -0.51    0.23    0.05   -0.11    0.00    0.00      -0.40    0.12   -0.28
#  34    0.72   -0.60    0.29   -0.18   -0.14    0.00    0.00       0.10   -0.37   -0.28
#  35    1.44   -1.18    1.92   -0.19   -0.15    0.00    0.00       1.84   -0.36   -0.28
#  36   -0.20   -0.86    0.30   -0.38   -0.16    0.00    0.00      -1.30   -0.60   -0.25
#  37   -0.13   -1.37    1.53    0.14   -0.18    0.00    0.00      -0.02    0.22   -0.28
#  38    1.18   -0.45    0.09    0.36   -0.14    0.00    0.00       1.04    0.75   -0.28
#  39    1.62   -0.57    0.18    0.14   -0.14    0.00    0.00       1.23    0.27   -0.28
@<TRIPOS>MOLECULE
E17664011
   39    41     0     0     0
SMALL
USER_CHARGES


@<TRIPOS>ATOM
      1 C1         22.0167   19.0660   61.5356 C.3       1            -0.1456
      2 C2         22.2295   18.6798   63.0007 C.3       1            -0.0807
      3 C3         21.7535   17.2671   63.2220 C.ar      1             0.2181
      4 C4         22.6409   16.2171   63.0589 C.ar      1            -0.1827
      5 C5         24.0981   16.1831   62.6761 C.3       1            -0.0710
      6 C6         24.3320   14.7590   62.1596 C.3       1            -0.1188
      7 C7         23.3426   13.9703   63.0253 C.3       1            -0.0917
      8 C8         22.2020   14.9229   63.2627 C.ar      1             0.0287
      9 C9         20.8679   14.7178   63.6300 C.ar      1            -0.0947
     10 C10        20.3671   13.3949   63.8527 C.1       1             0.2634
     11 N1         19.9698   12.3454   64.0294 N.1       1            -0.4063
     12 C11        20.0300   15.8344   63.7764 C.ar      1             0.3759
     13 O1         18.7340   15.6627   64.1314 O.3       1            -0.2932
     14 C12        18.4386   15.6636   65.5296 C.3       1             0.1182
     15 C13        16.9589   15.4612   65.7307 C.ar      1            -0.1308
     16 C14        16.5063   14.5758   66.6907 C.ar      1            -0.0728
     17 C15        15.1492   14.3902   66.8753 C.ar      1            -0.1268
     18 C16        14.2425   15.0898   66.0993 C.ar      1            -0.0876
     19 C17        14.6928   15.9757   65.1402 C.ar      1            -0.1503
     20 C18        16.0522   16.1665   64.9578 C.ar      1             0.1079
     21 F1         16.4935   17.0360   64.0227 F         1            -0.1347
     22 N2         20.5003   17.0531   63.5731 N.ar      1            -0.5317
     23 H1         22.3610   20.0877   61.3756 H         1             0.0676
     24 H2         22.5812   18.3880   60.8955 H         1             0.0597
     25 H3         20.9565   18.9974   61.2921 H         1             0.0578
     26 H4         23.2896   18.7484   63.2443 H         1             0.0882
     27 H5         21.6650   19.3578   63.6410 H         1             0.0882
     28 H6         24.3014   16.9104   61.8900 H         1             0.0865
     29 H7         24.7240   16.3789   63.5468 H         1             0.0833
     30 H8         24.0800   14.6781   61.1021 H         1             0.0862
     31 H9         25.3574   14.4379   62.3432 H         1             0.0787
     32 H10        22.9942   13.0850   62.4936 H         1             0.0978
     33 H11        23.8057   13.6889   63.9711 H         1             0.0872
     34 H12        18.9853   14.8561   66.0168 H         1             0.0895
     35 H13        18.7371   16.6179   65.9634 H         1             0.0896
     36 H14        17.2134   14.0287   67.2965 H         1             0.1381
     37 H15        14.7964   13.6977   67.6254 H         1             0.1328
     38 H16        13.1825   14.9432   66.2449 H         1             0.1359
     39 H17        13.9846   16.5217   64.5347 H         1             0.1402
@<TRIPOS>BOND
     1    1    2 1 
     2    1   23 1 
     3    1   24 1 
     4    1   25 1 
     5    2    3 1 
     6    2   26 1 
     7    2   27 1 
     8    3   22 ar
     9    3    4 ar
    10    4    8 ar
    11    4    5 1 
    12    5    6 1 
    13    5   28 1 
    14    5   29 1 
    15    6    7 1 
    16    6   30 1 
    17    6   31 1 
    18    7    8 1 
    19    7   32 1 
    20    7   33 1 
    21    8    9 ar
    22    9   10 1 
    23    9   12 ar
    24   10   11 3 
    25   12   13 1 
    26   12   22 ar
    27   13   14 1 
    28   14   15 1 
    29   14   34 1 
    30   14   35 1 
    31   15   20 ar
    32   15   16 ar
    33   16   17 ar
    34   16   36 1 
    35   17   18 ar
    36   17   37 1 
    37   18   19 ar
    38   18   38 1 
    39   19   20 ar
    40   19   39 1 
    41   20   21 1 
##########                 Name:            E36953550
##########          Protonation:                   81
##########               SMILES:   C[C@H]1CN(CC[NH+]1C[C@H](C)O)Cc2cccc(c2)C#N
##########            Long Name:   )-4-[(2S)-2-hydroxypropyl]-3-methyl-piperazin-4-ium-1-yl]methyl]benzonitrile
##########          FlexRecCode: 1
##########               Number:                  909
##########   Ligand Source File: /raidb/db2/rgc/leads-emolecules-300/leads-emolecules-lt300-1g-0000104.db2.gz
##########           GlobalRank: 4688
##########                 Rank:                    1
##########               Setnum:                   93
##########             Matchnum:                 4582
##########                Cloud:                    1
##########        Electrostatic:           -26.015095
##########        Van der Waals:           -18.829771
##########  Ligand Polar Desolv:             7.096467
########## Ligand Apolar Desolv:            -2.051213
##########      Internal Energy:             0.000000
##########      Receptor Energy: 0.0
########## Receptor Desolvation:             0.000000
########## Receptor Hydrophobic:             0.000000
##########         Total Energy: -39.8
##########        Ligand Charge:             1.000000
##########            Arbitrary:    +999.9990
##########     heavy atom count:   20
##########           pose count:    1
##########        Ligand Energy:             0.000000
# num electro vdwattr vdwrepu polsolv apolsol rdesolv rhydroe totalscore fullpol fullapo
#   1    2.25   -1.24    0.47   -1.48   -0.07    0.00    0.00      -0.07   -4.41   -0.20
#   2   -1.37   -0.97    0.28    0.85   -0.05    0.00    0.00      -1.25    2.71   -0.16
#   3    1.88   -1.01    0.23   -4.09    0.36    0.00    0.00      -2.63  -14.42    1.28
#   4    0.96   -0.65    0.08   -0.40   -0.08    0.00    0.00      -0.09   -1.34   -0.26
#   5    9.65   -1.81    1.52   -3.83    0.11    0.00    0.00       5.64  -10.72    0.31
#   6  -16.48   -0.17    0.09    5.28    0.19    0.00    0.00     -11.09   15.04    0.53
#   7    0.59   -1.29    0.35   -0.02   -0.17    0.00    0.00      -0.52   -0.04   -0.39
#   8   -0.37   -1.15    0.27    0.12   -0.15    0.00    0.00      -1.28    0.28   -0.35
#   9    5.41   -1.01    0.06   -5.54    1.34    0.00    0.00       0.26  -13.28    3.21
#  10   -0.31   -1.03    0.13    0.93   -0.17    0.00    0.00      -0.44    2.13   -0.39
#  11    0.08   -1.39    0.21   -0.52   -0.14    0.00    0.00      -1.77   -1.26   -0.34
#  12    0.16   -1.61    0.37   -0.39   -0.15    0.00    0.00      -1.62   -0.98   -0.37
#  13    0.25   -1.89    0.48   -0.87   -0.21    0.00    0.00      -2.24   -1.92   -0.47
#  14    0.03   -2.54    1.04   -0.55   -0.24    0.00    0.00      -2.25   -1.05   -0.45
#  15   -0.03   -2.46    2.93   -0.48   -0.22    0.00    0.00      -0.26   -0.88   -0.40
#  16   -0.10   -1.75    0.95   -0.31   -0.19    0.00    0.00      -1.40   -0.72   -0.44
#  17    0.77   -2.68    1.97    0.86   -0.90    0.00    0.00       0.01    1.39   -1.46
#  18   -1.31   -3.47    1.52   -0.18    0.46    0.00    0.00      -2.97   -0.28    0.71
#  19   -0.36   -0.52    0.02    0.20   -0.11    0.00    0.00      -0.76    0.63   -0.34
#  20   -0.57   -1.03    0.36    0.61   -0.09    0.00    0.00      -0.71    1.83   -0.26
#  21    2.66   -0.99    0.41   -1.48   -0.05    0.00    0.00       0.55   -5.07   -0.18
#  22   -1.12   -1.08    1.38    0.63   -0.11    0.00    0.00      -0.30    1.64   -0.28
#  23   -0.90   -0.36    0.13    0.45   -0.07    0.00    0.00      -0.75    1.82   -0.28
#  24   -0.60   -0.20    0.02    0.06   -0.06    0.00    0.00      -0.77    0.32   -0.28
#  25   -3.04   -0.71    0.99    1.12   -0.09    0.00    0.00      -1.72    3.52   -0.28
#  26   -0.54   -0.01    0.00    1.28    0.13    0.00    0.00       0.86   10.96    1.09
#  27   -1.57   -0.12    0.01    0.59   -0.02    0.00    0.00      -1.12    5.41   -0.20
#  28   -1.54   -0.22    0.03    0.92   -0.03    0.00    0.00      -0.85    4.48   -0.15
#  29   -5.10   -0.72    0.60    1.88   -0.07    0.00    0.00      -3.42    4.70   -0.18
#  30   -3.59   -0.48    0.19    1.34   -0.11    0.00    0.00      -2.66    3.45   -0.28
#  31   -0.87   -0.71    0.77    0.97   -0.06    0.00    0.00       0.09    2.87   -0.19
#  32   -1.69   -0.53    0.24    0.83   -0.08    0.00    0.00      -1.24    2.25   -0.21
#  33   -0.35   -0.47    0.09    0.68   -0.11    0.00    0.00      -0.16    1.67   -0.27
#  34    0.02   -0.51    0.24    0.83   -0.11    0.00    0.00       0.47    2.10   -0.28
#  35   -0.43   -0.39    0.12    1.17   -0.07    0.00    0.00       0.41    4.45   -0.28
#  36   -0.48   -0.38    0.09    0.93   -0.10    0.00    0.00       0.06    2.73   -0.28
#  37    0.02   -1.08    1.20    0.60   -0.15    0.00    0.00       0.59    1.14   -0.28
#  38    0.72   -0.29    0.05    0.56   -0.09    0.00    0.00       0.95    1.77   -0.28
#  39   -0.57   -0.18    0.02    0.40   -0.04    0.00    0.00      -0.37    2.51   -0.22
#  40   -1.04   -0.14    0.01    0.31   -0.04    0.00    0.00      -0.90    2.26   -0.28
#  41   -3.35   -0.52    0.23    1.42   -0.10    0.00    0.00      -2.31    4.02   -0.28
#  42   -0.70   -0.19    0.02    0.58   -0.05    0.00    0.00      -0.33    2.81   -0.22
#  43   -2.26   -1.01    2.06    0.52   -0.09    0.00    0.00      -0.77    1.69   -0.28
#  44   -0.83   -0.11    0.01    0.30   -0.03    0.00    0.00      -0.67    2.69   -0.28
@<TRIPOS>MOLECULE
E36953550
   44    45     0     0     0
SMALL
USER_CHARGES


@<TRIPOS>ATOM
      1 C1         24.2241   22.9475   59.3058 C.3       1            -0.1883
      2 C2         24.0739   22.4449   60.7430 C.3       1             0.0878
      3 O1         24.8273   23.2826   61.6220 O.3       1            -0.5500
      4 C3         24.5928   21.0087   60.8379 C.3       1            -0.0629
      5 N1         23.8182   20.1475   59.9343 N.4       1            -0.3760
      6 H1         23.9175   20.4791   58.9866 H         1             0.4253
      7 C4         22.4012   20.1831   60.3194 C.3       1            -0.0236
      8 C5         22.2522   19.6976   61.7629 C.3       1             0.0239
      9 N2         22.7730   18.3275   61.8721 N.3       1            -0.5338
     10 C6         22.5959   17.8039   63.2331 C.3       1             0.0971
     11 C7         22.6680   16.2990   63.2058 C.ar      1            -0.0963
     12 C8         23.8855   15.6630   63.3739 C.ar      1            -0.0903
     13 C9         23.9609   14.2819   63.3502 C.ar      1            -0.1142
     14 C10        22.8209   13.5289   63.1590 C.ar      1            -0.0613
     15 C11        21.5890   14.1638   62.9890 C.ar      1            -0.0166
     16 C12        21.5196   15.5583   63.0189 C.ar      1            -0.0477
     17 C13        20.4017   13.3886   62.7899 C.1       1             0.2389
     18 N3         19.4596   12.7736   62.6321 N.1       1            -0.3952
     19 C14        24.1845   18.2717   61.4658 C.3       1             0.0317
     20 C15        24.3172   18.7689   60.0251 C.3       1             0.0289
     21 C16        25.7882   18.7304   59.6063 C.3       1            -0.1838
     22 H2         23.6493   22.3085   58.6354 H         1             0.0703
     23 H3         23.8546   23.9707   59.2382 H         1             0.0797
     24 H4         25.2757   22.9214   59.0198 H         1             0.0888
     25 H5         23.0223   22.4708   61.0289 H         1             0.1229
     26 H6         25.7740   23.3076   61.4259 H         1             0.3873
     27 H7         25.6442   20.9826   60.5521 H         1             0.1431
     28 H8         24.4856   20.6505   61.8617 H         1             0.1314
     29 H9         22.0286   21.2044   60.2394 H         1             0.1667
     30 H10        21.8283   19.5344   59.6569 H         1             0.1335
     31 H11        22.8140   20.3542   62.4273 H         1             0.0547
     32 H12        21.1992   19.7098   62.0440 H         1             0.1266
     33 H13        23.3837   18.1938   63.8779 H         1             0.1001
     34 H14        21.6245   18.1142   63.6182 H         1             0.0589
     35 H15        24.7811   16.2477   63.5240 H         1             0.1264
     36 H16        24.9144   13.7920   63.4815 H         1             0.1388
     37 H17        22.8810   12.4507   63.1403 H         1             0.1381
     38 H18        20.5694   16.0557   62.8918 H         1             0.1349
     39 H19        24.7780   18.9048   62.1254 H         1             0.0601
     40 H20        24.5409   17.2437   61.5301 H         1             0.1228
     41 H21        23.7343   18.1274   59.3640 H         1             0.1468
     42 H22        26.1585   17.7074   59.6735 H         1             0.0799
     43 H23        25.8831   19.0844   58.5798 H         1             0.1085
     44 H24        26.3710   19.3720   60.2672 H         1             0.0863
@<TRIPOS>BOND
     1    1    2 1 
     2    1   22 1 
     3    1   23 1 
     4    1   24 1 
     5    2    3 1 
     6    2    4 1 
     7    2   25 1 
     8    3   26 1 
     9    4    5 1 
    10    4   27 1 
    11    4   28 1 
    12    5    6 1 
    13    5   20 1 
    14    5    7 1 
    15    7    8 1 
    16    7   29 1 
    17    7   30 1 
    18    8    9 1 
    19    8   31 1 
    20    8   32 1 
    21    9   10 1 
    22    9   19 1 
    23   10   11 1 
    24   10   33 1 
    25   10   34 1 
    26   11   16 ar
    27   11   12 ar
    28   12   13 ar
    29   12   35 1 
    30   13   14 ar
    31   13   36 1 
    32   14   15 ar
    33   14   37 1 
    34   15   16 ar
    35   15   17 1 
    36   16   38 1 
    37   17   18 3 
    38   19   20 1 
    39   19   39 1 
    40   19   40 1 
    41   20   21 1 
    42   20   41 1 
    43   21   42 1 
    44   21   43 1 
    45   21   44 1 
##########                 Name:            E31610867
##########          Protonation:                  100
##########               SMILES:   CCCCC[NH+]1CC[C@@H](CC1)Cn2nnc(c2)CO
##########            Long Name:   [1-[(1-pentylpiperidin-1-ium-4-yl)methyl]triazol-4-yl]methanol
##########          FlexRecCode: 1
##########               Number:                  151
##########   Ligand Source File: /raidb/db2/rgc/leads-emolecules-300/leads-lt300-emolecules-1d-0000231.db2.gz
##########           GlobalRank: 4688
##########                 Rank:                    1
##########               Setnum:                   77
##########             Matchnum:                  371
##########                Cloud:                    1
##########        Electrostatic:           -26.150116
##########        Van der Waals:           -22.194460
##########  Ligand Polar Desolv:             9.137728
########## Ligand Apolar Desolv:            -0.589596
##########      Internal Energy:             0.000000
##########      Receptor Energy: 0.0
########## Receptor Desolvation:             0.000000
########## Receptor Hydrophobic:             0.000000
##########         Total Energy: -39.8
##########        Ligand Charge:             1.000000
##########            Arbitrary:    +999.9990
##########     heavy atom count:   19
##########           pose count:    1
##########        Ligand Energy:             0.000000
# num electro vdwattr vdwrepu polsolv apolsol rdesolv rhydroe totalscore fullpol fullapo
#   1    0.80   -1.03    0.23   -0.82   -0.07    0.00    0.00      -0.89   -2.17   -0.19
#   2    1.00   -0.83    0.16   -0.69   -0.08    0.00    0.00      -0.44   -2.17   -0.25
#   3    0.84   -0.50    0.05   -0.67   -0.06    0.00    0.00      -0.34   -2.58   -0.22
#   4    1.11   -0.49    0.04   -0.95   -0.05    0.00    0.00      -0.35   -3.81   -0.21
#   5    0.37   -1.03    0.38   -0.09   -0.09    0.00    0.00      -0.45   -0.27   -0.28
#   6    8.59   -1.36    0.70   -3.76    0.14    0.00    0.00       4.31  -11.26    0.43
#   7  -13.45   -0.09    0.02    4.78    0.16    0.00    0.00      -8.57   16.42    0.56
#   8    0.22   -1.11    0.24   -0.02   -0.16    0.00    0.00      -0.84   -0.05   -0.39
#   9    2.03   -0.81    0.07   -1.60   -0.09    0.00    0.00      -0.40   -3.70   -0.21
#  10    1.07   -0.63    0.03   -0.85   -0.06    0.00    0.00      -0.44   -2.28   -0.16
#  11   -0.42   -1.32    0.24    0.67   -0.19    0.00    0.00      -1.03    1.51   -0.44
#  12   -0.29   -1.78    0.38   -1.41    0.40    0.00    0.00      -2.69   -3.15    0.90
#  13   -0.03   -1.67    0.36   -0.02   -0.42    0.00    0.00      -1.78   -0.05   -0.94
#  14   -0.08   -1.65    0.38   -0.33   -0.41    0.00    0.00      -2.10   -0.64   -0.79
#  15    0.59   -1.31    0.22    0.82   -0.10    0.00    0.00       0.22    1.34   -0.16
#  16   -2.85   -3.11    1.47   -3.54    1.04    0.00    0.00      -6.99   -5.72    1.68
#  17   -2.10   -1.77    0.37   -0.75    0.58    0.00    0.00      -3.67   -1.55    1.20
#  18   -0.58   -2.65    1.56   -0.44    0.23    0.00    0.00      -1.89   -0.95    0.49
#  19    1.39   -0.67    0.09   -1.04   -0.06    0.00    0.00      -0.29   -3.69   -0.21
#  20    0.05   -0.56    0.07    0.15   -0.11    0.00    0.00      -0.40    0.57   -0.42
#  21   -0.34   -0.43    0.25    0.03   -0.08    0.00    0.00      -0.56    0.12   -0.28
#  22   -0.21   -0.23    0.03    0.17   -0.08    0.00    0.00      -0.32    0.62   -0.28
#  23   -0.30   -0.47    0.16    0.18   -0.10    0.00    0.00      -0.53    0.51   -0.28
#  24   -0.46   -0.15    0.01    0.16   -0.04    0.00    0.00      -0.49    1.08   -0.28
#  25   -1.10   -0.67    0.59    0.27   -0.09    0.00    0.00      -0.99    0.88   -0.28
#  26   -0.77   -0.32    0.17    0.27   -0.06    0.00    0.00      -0.70    1.26   -0.28
#  27   -0.23   -0.10    0.00    0.15   -0.03    0.00    0.00      -0.20    1.58   -0.28
#  28   -0.42   -0.10    0.00    0.29   -0.02    0.00    0.00      -0.25    3.07   -0.22
#  29   -0.14   -0.17    0.02    0.43   -0.04    0.00    0.00       0.09    2.77   -0.28
#  30   -2.07   -0.62    0.75    1.27   -0.07    0.00    0.00      -0.74    4.76   -0.28
#  31   -3.14   -0.46    0.23    1.35   -0.05    0.00    0.00      -2.07    4.36   -0.15
#  32   -3.96   -0.61    0.44    2.12   -0.08    0.00    0.00      -2.10    5.43   -0.21
#  33   -3.41   -0.42    0.10    1.62   -0.10    0.00    0.00      -2.21    4.38   -0.28
#  34   -1.48   -0.53    0.29    1.26   -0.07    0.00    0.00      -0.54    3.75   -0.22
#  35   -1.35   -0.25    0.03    0.70   -0.08    0.00    0.00      -0.95    2.60   -0.28
#  36   -1.01   -0.17    0.01    0.20   -0.05    0.00    0.00      -1.01    1.25   -0.28
#  37   -0.38   -0.73    0.45    1.54   -0.11    0.00    0.00       0.77    3.99   -0.28
#  38   -0.35   -0.64    0.18    0.96   -0.13    0.00    0.00       0.02    2.01   -0.28
#  39   -0.05   -0.30    0.05    1.02   -0.08    0.00    0.00       0.63    3.44   -0.28
#  40    0.27   -0.37    0.04    0.21   -0.14    0.00    0.00       0.00    0.40   -0.28
#  41    0.19   -0.57    0.36    0.35   -0.15    0.00    0.00       0.18    0.64   -0.28
#  42    1.30   -0.05    0.00    3.01    0.65    0.00    0.00       4.91    5.73    1.24
#  43   -0.69   -0.33    0.07    0.87   -0.05    0.00    0.00      -0.13    3.47   -0.21
#  44   -0.89   -0.27    0.12    0.07   -0.05    0.00    0.00      -1.02    0.38   -0.27
#  45   -2.09   -0.22    0.04    0.72   -0.05    0.00    0.00      -1.61    3.83   -0.28
#  46   -1.33   -0.11    0.01    0.49   -0.03    0.00    0.00      -0.97    4.87   -0.28
@<TRIPOS>MOLECULE
E31610867
   46    47     0     0     0
SMALL
USER_CHARGES


@<TRIPOS>ATOM
      1 C1         24.8672   24.1567   57.7959 C.3       1            -0.1587
      2 C2         24.5453   23.6657   59.2089 C.3       1            -0.1253
      3 C3         25.6488   22.7180   59.6831 C.3       1            -0.1180
      4 C4         25.3271   22.2270   61.0961 C.3       1            -0.1480
      5 C5         23.9884   21.4864   61.0861 C.3       1            -0.0215
      6 N1         24.0715   20.3369   60.1753 N.4       1            -0.3812
      7 H1         24.2836   20.6616   59.2440 H         1             0.4282
      8 C6         22.7855   19.6294   60.1642 C.3       1            -0.0090
      9 C7         22.4208   19.2036   61.5880 C.3       1            -0.1414
     10 C8         23.5109   18.2760   62.1325 C.3       1            -0.1153
     11 C9         23.1932   17.9098   63.5836 C.3       1             0.1219
     12 N2         22.1865   16.8457   63.6096 N.pl3     1            -0.3026
     13 C10        22.4381   15.5162   63.6137 C.2       1            -0.0227
     14 C11        21.2312   14.9041   63.6405 C.2       1            -0.0205
     15 C12        20.9732   13.4194   63.6555 C.3       1             0.1613
     16 O1         21.8479   12.7935   64.5963 O.3       1            -0.5750
     17 N3         20.3124   15.8763   63.6513 N.2       1            -0.2508
     18 N4         20.9108   17.0149   63.6381 N.2       1            -0.0825
     19 C13        24.8600   18.9979   62.0700 C.3       1            -0.1462
     20 C14        25.1330   19.4305   60.6293 C.3       1            -0.0034
     21 H2         24.0810   24.8319   57.4579 H         1             0.0616
     22 H3         25.8209   24.6842   57.8031 H         1             0.0568
     23 H4         24.9289   23.3037   57.1201 H         1             0.0572
     24 H5         24.4836   24.5187   59.8846 H         1             0.0652
     25 H6         23.5916   23.1381   59.2015 H         1             0.0657
     26 H7         25.7107   21.8650   59.0073 H         1             0.0737
     27 H8         26.6027   23.2457   59.6903 H         1             0.0724
     28 H9         26.1133   21.5519   61.4339 H         1             0.0867
     29 H10        25.2655   23.0799   61.7719 H         1             0.0870
     30 H11        23.7592   21.1366   62.0927 H         1             0.1308
     31 H12        23.2022   22.1614   60.7483 H         1             0.1326
     32 H13        22.0114   20.2898   59.7735 H         1             0.1362
     33 H14        22.8625   18.7464   59.5298 H         1             0.1335
     34 H15        22.3433   20.0861   62.2232 H         1             0.0947
     35 H16        21.4666   18.6770   61.5772 H         1             0.1194
     36 H17        23.5531   17.3694   61.5286 H         1             0.1113
     37 H18        24.1008   17.5634   64.0779 H         1             0.1112
     38 H19        22.8082   18.7869   64.1037 H         1             0.1108
     39 H20        23.4070   15.0393   63.5983 H         1             0.1962
     40 H21        19.9382   13.2333   63.9422 H         1             0.0731
     41 H22        21.1544   13.0090   62.6622 H         1             0.0717
     42 H23        22.7873   12.9181   64.4032 H         1             0.3968
     43 H24        24.8330   19.8760   62.7153 H         1             0.0924
     44 H25        25.6491   18.3242   62.4040 H         1             0.1079
     45 H26        25.1600   18.5516   59.9851 H         1             0.1330
     46 H27        26.0934   19.9440   60.5824 H         1             0.1332
@<TRIPOS>BOND
     1    1    2 1 
     2    1   21 1 
     3    1   22 1 
     4    1   23 1 
     5    2    3 1 
     6    2   24 1 
     7    2   25 1 
     8    3    4 1 
     9    3   26 1 
    10    3   27 1 
    11    4    5 1 
    12    4   28 1 
    13    4   29 1 
    14    5    6 1 
    15    5   30 1 
    16    5   31 1 
    17    6    7 1 
    18    6   20 1 
    19    6    8 1 
    20    8    9 1 
    21    8   32 1 
    22    8   33 1 
    23    9   10 1 
    24    9   34 1 
    25    9   35 1 
    26   10   11 1 
    27   10   19 1 
    28   10   36 1 
    29   11   12 1 
    30   11   37 1 
    31   11   38 1 
    32   12   18 1 
    33   12   13 1 
    34   13   14 2 
    35   13   39 1 
    36   14   15 1 
    37   14   17 1 
    38   15   16 1 
    39   15   40 1 
    40   15   41 1 
    41   16   42 1 
    42   17   18 2 
    43   19   20 1 
    44   19   43 1 
    45   19   44 1 
    46   20   45 1 
    47   20   46 1 
##########                 Name:            E44369033
##########          Protonation:                   35
##########               SMILES:   c1cnc(nc1)NCc2c3c(n[nH]2)C[NH+](CC3)CC4CC4
##########            Long Name:   6,7-tetrahydro-2H-pyrazolo[3,4-c]pyridin-6-ium-3-yl]methyl]pyrimidin-2-amine
##########          FlexRecCode: 1
##########               Number:                  658
##########   Ligand Source File: /raidb/db2/rgc/leads-emolecules-300/leads-emolecules-2a-0000164.db2.gz
##########           GlobalRank: 4703
##########                 Rank:                    1
##########               Setnum:                  129
##########             Matchnum:                 5902
##########                Cloud:                    1
##########        Electrostatic:           -17.918224
##########        Van der Waals:           -25.593384
##########  Ligand Polar Desolv:             6.826607
########## Ligand Apolar Desolv:            -3.100660
##########      Internal Energy:             0.000000
##########      Receptor Energy: 0.0
########## Receptor Desolvation:             0.000000
########## Receptor Hydrophobic:             0.000000
##########         Total Energy: -39.79
##########        Ligand Charge:             1.000000
##########            Arbitrary:    +999.9990
##########     heavy atom count:   21
##########           pose count:    1
##########        Ligand Energy:             0.000000
# num electro vdwattr vdwrepu polsolv apolsol rdesolv rhydroe totalscore fullpol fullapo
#   1   -0.22   -1.63    0.90    1.21   -0.19    0.00    0.00       0.07    2.90   -0.46
#   2    0.66   -2.64    1.24   -3.77    0.86    0.00    0.00      -3.65   -7.67    1.75
#   3    0.98   -2.07    0.53    2.09   -2.53    0.00    0.00      -1.00    3.96   -4.79
#   4   -1.46   -1.64    0.33   -2.08    0.90    0.00    0.00      -3.94   -4.39    1.91
#   5    1.10   -1.59    0.32    0.74   -0.51    0.00    0.00       0.06    1.43   -0.98
#   6   -1.46   -1.81    0.31   -1.58   -0.29    0.00    0.00      -4.83   -2.65   -0.48
#   7    0.62   -2.50    0.47    0.83   -0.63    0.00    0.00      -1.21    1.29   -0.98
#   8   -2.44   -2.93    0.76   -2.52    1.30    0.00    0.00      -5.84   -4.04    2.08
#   9   -0.48   -1.05    0.09    0.34   -0.26    0.00    0.00      -1.36    0.93   -0.71
#  10    1.55   -0.86    0.07   -1.26   -0.12    0.00    0.00      -0.62   -4.20   -0.41
#  11    0.48   -0.78    0.15   -0.54   -0.09    0.00    0.00      -0.78   -1.72   -0.27
#  12    0.05   -0.50    0.03    0.11   -0.10    0.00    0.00      -0.41    0.42   -0.39
#  13    6.65   -1.06    0.29   -3.44    0.08    0.00    0.00       2.52  -11.04    0.26
#  14  -10.42   -0.04    0.00    3.27    0.12    0.00    0.00      -7.07   14.53    0.53
#  15   -0.54   -1.02    0.20    0.57   -0.14    0.00    0.00      -0.94    1.47   -0.37
#  16    4.41   -0.88    0.09   -1.58   -0.16    0.00    0.00       1.87   -3.60   -0.36
#  17    2.04   -1.21    0.36   -2.01   -0.21    0.00    0.00      -1.04   -4.22   -0.43
#  18    3.06   -1.33    0.27   -2.26   -0.23    0.00    0.00      -0.51   -4.16   -0.43
#  19   -1.12   -1.06    0.29    0.90   -0.13    0.00    0.00      -1.12    2.64   -0.38
#  20   -0.20   -1.10    0.15    0.39   -0.27    0.00    0.00      -1.01    1.16   -0.79
#  21    0.75   -1.85    0.54   -1.94    0.49    0.00    0.00      -2.01   -4.85    1.22
#  22    2.00   -1.41    0.20   -2.68    0.29    0.00    0.00      -1.61   -6.69    0.72
#  23    0.04   -0.68    0.67    0.55   -0.10    0.00    0.00       0.49    1.58   -0.28
#  24    0.01   -0.87    0.92    0.21   -0.10    0.00    0.00       0.16    0.56   -0.28
#  25   -1.21   -0.05    0.00    2.22    0.25    0.00    0.00       1.22    5.13    0.58
#  26    1.75   -0.32    0.06    0.83   -0.10    0.00    0.00       2.21    2.42   -0.28
#  27    1.06   -0.48    0.20    0.91   -0.12    0.00    0.00       1.58    2.13   -0.28
#  28   -0.06   -0.82    0.38    1.38   -0.18    0.00    0.00       0.71    2.17   -0.28
#  29   -0.84   -0.18    0.01    0.45   -0.06    0.00    0.00      -0.63    2.06   -0.28
#  30   -0.84   -0.87    1.60    0.94   -0.08    0.00    0.00       0.75    3.22   -0.28
#  31   -1.47   -0.17    0.01    0.79   -0.05    0.00    0.00      -0.89    4.58   -0.28
#  32   -1.04   -0.12    0.01    0.80   -0.03    0.00    0.00      -0.38    6.72   -0.27
#  33   -3.46   -0.66    0.34    2.51   -0.13    0.00    0.00      -1.39    5.61   -0.28
#  34   -1.69   -0.26    0.05    1.48   -0.07    0.00    0.00      -0.48    5.93   -0.27
#  35   -2.82   -0.27    0.03    1.04   -0.06    0.00    0.00      -2.08    3.61   -0.22
#  36   -0.60   -0.28    0.05    0.73   -0.08    0.00    0.00      -0.17    2.61   -0.28
#  37   -1.28   -0.83    0.70    0.41   -0.12    0.00    0.00      -1.12    0.97   -0.28
#  38   -2.69   -0.56    0.22    0.40   -0.13    0.00    0.00      -2.77    0.86   -0.28
#  39   -2.28   -0.52    0.18    1.02   -0.13    0.00    0.00      -1.73    2.20   -0.28
#  40   -2.49   -0.97    1.48    2.27   -0.11    0.00    0.00       0.18    5.59   -0.28
#  41   -1.17   -0.19    0.02    0.96   -0.04    0.00    0.00      -0.43    4.70   -0.22
#  42   -2.85   -0.04    0.00    2.14    0.15    0.00    0.00      -0.60    5.75    0.41
@<TRIPOS>MOLECULE
E44369033
   42    45     0     0     0
SMALL
USER_CHARGES


@<TRIPOS>ATOM
      1 C1         24.6072   15.0097   63.8129 C.3       1             0.1986
      2 N1         23.7935   13.7914   63.8134 N.pl3     1            -0.7033
      3 C2         22.4164   13.8790   63.7062 C.ar      1             0.5579
      4 N2         21.8506   15.0723   63.5984 N.ar      1            -0.5697
      5 C3         20.5374   15.1910   63.4938 C.ar      1             0.1932
      6 C4         19.7527   14.0484   63.4980 C.ar      1            -0.2781
      7 C5         20.3771   12.8162   63.6123 C.ar      1             0.1949
      8 N3         21.6955   12.7673   63.7083 N.ar      1            -0.5674
      9 C6         24.9918   15.3563   62.3976 C.2       1             0.1129
     10 C7         24.9472   16.5787   61.8392 C.2       1            -0.2424
     11 C8         24.5212   17.8852   62.4622 C.3       1            -0.0612
     12 C9         25.0515   18.9875   61.5362 C.3       1            -0.0048
     13 N4         24.6563   18.7207   60.1474 N.4       1            -0.3795
     14 H1         24.7801   19.5600   59.6010 H         1             0.4283
     15 C10        23.2407   18.3294   60.1157 C.3       1             0.0283
     16 C11        22.3854   19.4632   60.6847 C.3       1            -0.2184
     17 C12        21.3407   19.0981   61.7411 C.3       1            -0.1664
     18 C13        20.8981   19.4746   60.3257 C.3       1            -0.1481
     19 C14        25.4666   17.6395   59.5625 C.3       1             0.0906
     20 C15        25.3857   16.4664   60.5083 C.2       1             0.0281
     21 N5         25.6837   15.2208   60.2825 N.2       1            -0.2245
     22 N6         25.4497   14.4952   61.4608 N.pl3     1            -0.4473
     23 H2         24.0337   15.8299   64.2448 H         1             0.1020
     24 H3         25.5079   14.8453   64.4042 H         1             0.0874
     25 H4         24.2199   12.9234   63.8889 H         1             0.4155
     26 H5         20.0820   16.1663   63.4066 H         1             0.1721
     27 H6         18.6782   14.1167   63.4142 H         1             0.1504
     28 H7         19.7945   11.9068   63.6190 H         1             0.1724
     29 H8         23.4340   17.9358   62.5221 H         1             0.1185
     30 H9         24.9575   17.9874   63.4559 H         1             0.1004
     31 H10        24.6432   19.9485   61.8489 H         1             0.1327
     32 H11        26.1390   19.0211   61.6016 H         1             0.1391
     33 H12        22.9419   18.1300   59.0866 H         1             0.1350
     34 H13        23.0988   17.4307   60.7159 H         1             0.1355
     35 H14        22.8868   20.4260   60.7839 H         1             0.1260
     36 H15        21.2627   18.0501   62.0307 H         1             0.1069
     37 H16        21.1544   19.8207   62.5356 H         1             0.1100
     38 H17        20.4209   20.4450   60.1890 H         1             0.1124
     39 H18        20.5291   18.6745   59.6841 H         1             0.1084
     40 H19        25.0663   17.3601   58.5880 H         1             0.1499
     41 H20        26.5022   17.9644   59.4604 H         1             0.1491
     42 H21        25.5900   13.5431   61.5814 H         1             0.4546
@<TRIPOS>BOND
     1    1    2 1 
     2    1    9 1 
     3    1   23 1 
     4    1   24 1 
     5    2    3 1 
     6    2   25 1 
     7    3    8 ar
     8    3    4 ar
     9    4    5 ar
    10    5    6 ar
    11    5   26 1 
    12    6    7 ar
    13    6   27 1 
    14    7    8 ar
    15    7   28 1 
    16    9   22 1 
    17    9   10 2 
    18   10   20 1 
    19   10   11 1 
    20   11   12 1 
    21   11   29 1 
    22   11   30 1 
    23   12   13 1 
    24   12   31 1 
    25   12   32 1 
    26   13   14 1 
    27   13   15 1 
    28   13   19 1 
    29   15   16 1 
    30   15   33 1 
    31   15   34 1 
    32   16   18 1 
    33   16   17 1 
    34   16   35 1 
    35   17   18 1 
    36   17   36 1 
    37   17   37 1 
    38   18   38 1 
    39   18   39 1 
    40   19   20 1 
    41   19   40 1 
    42   19   41 1 
    43   20   21 2 
    44   21   22 1 
    45   22   42 1 
##########                 Name:            E31672359
##########          Protonation:                  100
##########               SMILES:   Cc1ccc-2c(=O)c(cnc2[nH]1)C(=O)Nc3ccc(cc3)F
##########            Long Name:   N-(4-fluorophenyl)-7-methyl-4-oxo-8H-1,8-naphthyridine-3-carboxamide
##########          FlexRecCode: 1
##########               Number:                  427
##########   Ligand Source File: /raidb/db2/rgc/leads-emolecules-300/leads-emolecules-2h-0000341.db2.gz
##########           GlobalRank: 4728
##########                 Rank:                    1
##########               Setnum:                   12
##########             Matchnum:                 4670
##########                Cloud:                    1
##########        Electrostatic:           -15.563202
##########        Van der Waals:           -30.458714
##########  Ligand Polar Desolv:             9.255077
########## Ligand Apolar Desolv:            -3.016819
##########      Internal Energy:             0.000000
##########      Receptor Energy: 0.0
########## Receptor Desolvation:             0.000000
########## Receptor Hydrophobic:             0.000000
##########         Total Energy: -39.78
##########        Ligand Charge:             0.000000
##########            Arbitrary:    +999.9990
##########     heavy atom count:   22
##########           pose count:    1
##########        Ligand Energy:             0.000000
# num electro vdwattr vdwrepu polsolv apolsol rdesolv rhydroe totalscore fullpol fullapo
#   1    0.49   -1.38    0.52   -0.90   -0.08    0.00    0.00      -1.35   -2.19   -0.20
#   2   -0.53   -2.21    0.80    1.31   -0.33    0.00    0.00      -0.96    2.96   -0.74
#   3    0.51   -1.59    0.36   -0.81   -0.18    0.00    0.00      -1.70   -2.05   -0.45
#   4   -0.06   -1.52    0.26    0.15   -0.19    0.00    0.00      -1.35    0.37   -0.45
#   5   -0.70   -1.74    0.41    0.16   -0.19    0.00    0.00      -2.06    0.34   -0.41
#   6    3.12   -1.90    0.60   -1.33   -0.15    0.00    0.00       0.35   -2.81   -0.31
#   7   -5.87   -2.63    1.62    2.21    0.17    0.00    0.00      -4.49    4.69    0.36
#   8   -3.14   -1.72    0.29    2.17   -0.23    0.00    0.00      -2.64    3.86   -0.41
#   9    1.26   -2.41    0.95   -1.18   -0.57    0.00    0.00      -1.95   -1.92   -0.93
#  10   -2.64   -2.75    0.92    1.22    1.28    0.00    0.00      -1.98    1.93    2.02
#  11    1.21   -2.25    0.72    0.11   -1.15    0.00    0.00      -1.35    0.21   -2.11
#  12    0.11   -3.21    1.69   -1.92    0.52    0.00    0.00      -2.80   -3.65    0.99
#  13    7.15   -1.92    0.33   -3.79   -0.38    0.00    0.00       1.39   -6.34   -0.64
#  14   -9.92   -2.28    0.67    4.62    0.20    0.00    0.00      -6.70    7.98    0.34
#  15   -5.89   -2.67    1.08    3.97    1.04    0.00    0.00      -2.47    6.24    1.64
#  16    1.62   -2.87    1.55   -0.66   -0.45    0.00    0.00      -0.80   -1.00   -0.68
#  17   -0.74   -3.02    0.88    0.70   -0.26    0.00    0.00      -2.43    1.09   -0.40
#  18   -1.28   -2.83    0.78    0.62   -0.31    0.00    0.00      -3.01    0.94   -0.47
#  19    0.83   -2.21    0.43   -0.20   -0.22    0.00    0.00      -1.37   -0.30   -0.34
#  20   -1.37   -1.70    0.83    0.65   -0.32    0.00    0.00      -1.92    0.98   -0.48
#  21   -1.46   -2.90    1.08    0.31   -0.29    0.00    0.00      -3.25    0.50   -0.47
#  22   -1.60   -3.04    1.64    0.36   -0.27    0.00    0.00      -2.91    0.61   -0.46
#  23   -0.25   -0.20    0.02    0.49   -0.06    0.00    0.00       0.00    2.30   -0.28
#  24   -0.11   -0.56    0.40    0.99   -0.11    0.00    0.00       0.62    2.53   -0.28
#  25   -0.77   -1.15    3.58    0.69   -0.10    0.00    0.00       2.25    1.86   -0.28
#  26   -0.69   -0.25    0.04    0.74   -0.06    0.00    0.00      -0.23    3.54   -0.28
#  27   -0.40   -0.23    0.02    0.20   -0.07    0.00    0.00      -0.48    0.74   -0.27
#  28    0.26   -0.69    0.31   -0.58   -0.14    0.00    0.00      -0.83   -1.09   -0.27
#  29    0.01   -0.09    0.01    2.41    0.31    0.00    0.00       2.65    4.56    0.58
#  30    1.50   -0.05    0.00   -1.89    0.19    0.00    0.00      -0.26   -3.69    0.37
#  31    0.22   -0.75    0.19   -0.80   -0.13    0.00    0.00      -1.27   -1.32   -0.22
#  32    1.18   -1.23    2.76   -0.46   -0.17    0.00    0.00       2.07   -0.78   -0.28
#  33    0.73   -1.08    1.28   -0.10   -0.15    0.00    0.00       0.68   -0.18   -0.28
#  34    1.64   -0.65    0.19   -0.23   -0.15    0.00    0.00       0.80   -0.42   -0.28
@<TRIPOS>MOLECULE
E31672359
   34    36     0     0     0
SMALL
USER_CHARGES


@<TRIPOS>ATOM
      1 C1         25.8606   13.4499   63.4631 C.3       1            -0.1393
      2 C2         24.4862   14.0592   63.5670 C.2       1             0.2185
      3 C3         24.3282   15.3890   63.3108 C.2       1            -0.2249
      4 C4         23.0696   15.9721   63.4004 C.2       1             0.0903
      5 C5         21.9847   15.1680   63.7558 C.2       1            -0.2639
      6 C6         20.6259   15.7143   63.8698 C.2       1             0.4370
      7 O1         20.3907   16.8937   63.6584 O.2       1            -0.5151
      8 C7         19.5973   14.8037   64.2379 C.2       1            -0.3966
      9 C8         19.9321   13.4683   64.4653 C.2       1             0.2931
     10 N1         21.1613   13.0209   64.3521 N.2       1            -0.6072
     11 C9         22.1878   13.7948   64.0136 C.2       1             0.4278
     12 N2         23.4479   13.2771   63.9040 N.pl3     1            -0.5215
     13 C10        18.2089   15.2604   64.3764 C.2       1             0.5879
     14 O2         17.8034   16.1885   63.7020 O.2       1            -0.5428
     15 N3         17.3834   14.6514   65.2507 N.am      1            -0.6670
     16 C11        16.0596   15.0866   65.3827 C.ar      1             0.1473
     17 C12        15.4057   14.9638   66.6015 C.ar      1            -0.0977
     18 C13        14.0997   15.3943   66.7298 C.ar      1            -0.1321
     19 C14        13.4422   15.9478   65.6440 C.ar      1             0.0739
     20 F1         12.1647   16.3683   65.7716 F         1            -0.1422
     21 C15        14.0925   16.0711   64.4276 C.ar      1            -0.1319
     22 C16        15.4004   15.6471   64.2967 C.ar      1            -0.1216
     23 H1         26.5792   14.2199   63.1823 H         1             0.1077
     24 H2         26.1427   13.0234   64.4257 H         1             0.1097
     25 H3         25.8541   12.6656   62.7061 H         1             0.0906
     26 H4         25.1827   15.9905   63.0381 H         1             0.1694
     27 H5         22.9338   17.0245   63.2000 H         1             0.1646
     28 H6         19.1510   12.7769   64.7451 H         1             0.1725
     29 H7         23.5948   12.3338   64.0757 H         1             0.4356
     30 H8         17.7066   13.9115   65.7882 H         1             0.4231
     31 H9         15.9178   14.5315   67.4485 H         1             0.1443
     32 H10        13.5907   15.2989   67.6776 H         1             0.1374
     33 H11        13.5779   16.5027   63.5819 H         1             0.1380
     34 H12        15.9085   15.7472   63.3490 H         1             0.1350
@<TRIPOS>BOND
     1    1    2 1 
     2    1   23 1 
     3    1   24 1 
     4    1   25 1 
     5    2   12 1 
     6    2    3 2 
     7    3    4 1 
     8    3   26 1 
     9    4    5 2 
    10    4   27 1 
    11    5   11 1 
    12    5    6 1 
    13    6    7 2 
    14    6    8 1 
    15    8    9 2 
    16    8   13 1 
    17    9   10 1 
    18    9   28 1 
    19   10   11 2 
    20   11   12 1 
    21   12   29 1 
    22   13   14 2 
    23   13   15 am
    24   15   16 1 
    25   15   30 1 
    26   16   22 ar
    27   16   17 ar
    28   17   18 ar
    29   17   31 1 
    30   18   19 ar
    31   18   32 1 
    32   19   20 1 
    33   19   21 ar
    34   21   22 ar
    35   21   33 1 
    36   22   34 1 
##########                 Name:            E43068586
##########          Protonation:                   57
##########               SMILES:   Cc1occ(n1)C[NH+]2CC[C@@H](CC2)Cc3ccc(cc3)F
##########            Long Name:   4-[[4-[(4-fluorophenyl)methyl]piperidin-1-ium-1-yl]methyl]-2-methyl-oxazole
##########          FlexRecCode: 1
##########               Number:                 1104
##########   Ligand Source File: /raidb/db2/rgc/leads-emolecules-300/leads-emolecules-3-cc-0000004.db2.gz
##########           GlobalRank: 4728
##########                 Rank:                    1
##########               Setnum:                   43
##########             Matchnum:                 3849
##########                Cloud:                    1
##########        Electrostatic:           -21.184689
##########        Van der Waals:           -22.740107
##########  Ligand Polar Desolv:             7.028538
########## Ligand Apolar Desolv:            -2.884993
##########      Internal Energy:             0.000000
##########      Receptor Energy: 0.0
########## Receptor Desolvation:             0.000000
########## Receptor Hydrophobic:             0.000000
##########         Total Energy: -39.78
##########        Ligand Charge:             1.000000
##########            Arbitrary:    +999.9990
##########     heavy atom count:   21
##########           pose count:    1
##########        Ligand Energy:             0.000000
# num electro vdwattr vdwrepu polsolv apolsol rdesolv rhydroe totalscore fullpol fullapo
#   1   -0.02   -1.32    0.48   -0.41   -0.08    0.00    0.00      -1.35   -1.03   -0.21
#   2    0.03   -1.38    0.25    0.78   -0.26    0.00    0.00      -0.57    2.22   -0.73
#   3    0.39   -1.13    0.13   -2.64    1.05    0.00    0.00      -2.19   -8.55    3.39
#   4    0.41   -0.84    0.08   -0.40   -0.17    0.00    0.00      -0.93   -1.46   -0.62
#   5   -0.82   -0.48    0.05    0.62   -0.08    0.00    0.00      -0.70    2.60   -0.33
#   6    8.19   -2.08    2.43   -3.48    0.14    0.00    0.00       5.19  -10.94    0.43
#   7  -15.14   -0.23    0.16    4.73    0.19    0.00    0.00     -10.30   14.01    0.56
#   8    0.25   -0.92    0.29   -0.02   -0.13    0.00    0.00      -0.54   -0.07   -0.39
#   9    1.87   -0.68    0.06   -1.36   -0.07    0.00    0.00      -0.19   -4.01   -0.21
#  10    0.94   -0.60    0.03   -0.81   -0.06    0.00    0.00      -0.50   -2.10   -0.15
#  11    0.29   -1.04    0.14   -0.74   -0.08    0.00    0.00      -1.44   -1.75   -0.20
#  12    0.02   -1.48    0.24   -0.45   -0.14    0.00    0.00      -1.81   -1.06   -0.33
#  13   -0.38   -1.76    0.45   -0.58   -0.20    0.00    0.00      -2.47   -1.31   -0.46
#  14   -0.78   -1.60    0.32   -0.87   -0.25    0.00    0.00      -3.19   -1.62   -0.47
#  15    0.32   -1.93    0.53   -0.11   -0.20    0.00    0.00      -1.39   -0.19   -0.34
#  16   -0.50   -1.39    0.20   -0.34   -0.31    0.00    0.00      -2.34   -0.53   -0.48
#  17   -0.01   -2.07    0.60   -0.91   -0.24    0.00    0.00      -2.62   -1.79   -0.47
#  18    0.10   -1.56    0.31   -0.50   -0.16    0.00    0.00      -1.81   -1.16   -0.38
#  19    1.48   -0.70    0.11   -1.43   -0.06    0.00    0.00      -0.60   -4.45   -0.19
#  20    0.10   -1.55    0.80    0.16   -0.16    0.00    0.00      -0.66    0.40   -0.42
#  21    0.05   -1.02    0.18   -0.22   -0.07    0.00    0.00      -1.09   -0.80   -0.25
#  22   -0.07   -1.50    0.80   -1.21    0.09    0.00    0.00      -1.90   -3.63    0.26
#  23    0.01   -0.65    0.58    0.40   -0.08    0.00    0.00       0.26    1.31   -0.28
#  24    0.10   -0.20    0.03    0.37   -0.08    0.00    0.00       0.22    1.34   -0.28
#  25    0.01   -0.69    0.37    0.85   -0.14    0.00    0.00       0.40    1.71   -0.28
#  26   -1.18   -0.10    0.00    0.48   -0.03    0.00    0.00      -0.82    4.65   -0.28
#  27   -1.19   -0.10    0.01    0.58   -0.01    0.00    0.00      -0.71    5.91   -0.15
#  28   -2.32   -0.22    0.04    0.67   -0.04    0.00    0.00      -1.87    3.39   -0.22
#  29   -3.65   -0.39    0.13    1.56   -0.09    0.00    0.00      -2.45    4.78   -0.28
#  30   -0.78   -0.20    0.02    0.65   -0.04    0.00    0.00      -0.35    3.48   -0.20
#  31   -1.64   -0.44    0.20    0.79   -0.08    0.00    0.00      -1.18    2.85   -0.28
#  32   -1.07   -0.18    0.01    0.41   -0.06    0.00    0.00      -0.89    2.07   -0.28
#  33   -0.40   -0.56    0.29    0.89   -0.09    0.00    0.00       0.12    2.65   -0.28
#  34   -0.22   -0.48    0.10    0.77   -0.12    0.00    0.00       0.05    1.77   -0.28
#  35    1.27   -0.53    0.30    0.91   -0.10    0.00    0.00       1.86    2.63   -0.28
#  36    1.08   -0.27    0.02    0.28   -0.10    0.00    0.00       1.01    0.80   -0.28
#  37   -0.39   -0.67    0.48    0.58   -0.13    0.00    0.00      -0.13    1.29   -0.28
#  38   -0.35   -0.24    0.03    0.98   -0.07    0.00    0.00       0.34    3.93   -0.28
#  39   -0.69   -0.13    0.00    0.45   -0.03    0.00    0.00      -0.38    3.59   -0.22
#  40   -0.88   -0.40    0.26    0.47   -0.06    0.00    0.00      -0.61    1.82   -0.22
#  41   -3.01   -0.71    0.56    1.98   -0.12    0.00    0.00      -1.30    4.60   -0.28
#  42   -1.85   -0.67    0.46    1.89   -0.11    0.00    0.00      -0.28    4.92   -0.28
#  43   -0.74   -0.15    0.01    1.26   -0.05    0.00    0.00       0.33    7.44   -0.27
@<TRIPOS>MOLECULE
E43068586
   43    45     0     0     0
SMALL
USER_CHARGES


@<TRIPOS>ATOM
      1 C1         29.4423   16.9223   56.9524 C.3       1            -0.0716
      2 C2         28.4473   17.0507   58.0769 C.2       1             0.2313
      3 N1         27.8833   18.1577   58.4681 N.2       1            -0.4805
      4 C3         27.0566   17.8819   59.4923 C.2       1            -0.0837
      5 C4         26.2065   18.8756   60.2413 C.3       1             0.0808
      6 N2         24.8939   18.9856   59.5909 N.4       1            -0.3796
      7 H1         25.0165   19.2970   58.6390 H         1             0.4301
      8 C5         24.0684   19.9562   60.3193 C.3       1            -0.0115
      9 C6         23.9451   19.5296   61.7837 C.3       1            -0.1455
     10 C7         23.2909   18.1466   61.8534 C.3       1            -0.0945
     11 C8         23.2368   17.6791   63.3092 C.3       1            -0.0730
     12 C9         22.5963   16.3166   63.3757 C.ar      1            -0.1073
     13 C10        21.2266   16.2036   63.5247 C.ar      1            -0.0845
     14 C11        20.6383   14.9546   63.5858 C.ar      1            -0.1488
     15 C12        21.4213   13.8161   63.4972 C.ar      1             0.1053
     16 F1         20.8472   12.5946   63.5564 F         1            -0.1338
     17 C13        22.7930   13.9304   63.3476 C.ar      1            -0.1509
     18 C14        23.3785   15.1805   63.2819 C.ar      1            -0.0908
     19 C15        24.1206   17.1582   61.0287 C.3       1            -0.1505
     20 C16        24.2365   17.6732   59.5939 C.3       1            -0.0056
     21 C17        27.1247   16.5611   59.7270 C.2       1            -0.0200
     22 O1         27.9927   16.0442   58.8353 O.3       1            -0.1843
     23 H2         29.6250   17.9039   56.5152 H         1             0.0987
     24 H3         30.3775   16.5171   57.3390 H         1             0.1082
     25 H4         29.0442   16.2532   56.1896 H         1             0.1072
     26 H5         26.0754   18.5392   61.2697 H         1             0.1460
     27 H6         26.6968   19.8491   60.2372 H         1             0.1480
     28 H7         24.5336   20.9406   60.2661 H         1             0.1244
     29 H8         23.0766   19.9993   59.8692 H         1             0.1340
     30 H9         24.9365   19.4865   62.2349 H         1             0.0866
     31 H10        23.3303   20.2506   62.3224 H         1             0.1160
     32 H11        22.2798   18.2010   61.4502 H         1             0.0951
     33 H12        24.2484   17.6252   63.7114 H         1             0.0802
     34 H13        22.6496   18.3855   63.8960 H         1             0.0864
     35 H14        20.6161   17.0918   63.5938 H         1             0.1331
     36 H15        19.5683   14.8667   63.7029 H         1             0.1393
     37 H16        23.4047   13.0431   63.2786 H         1             0.1386
     38 H17        24.4480   15.2699   63.1609 H         1             0.1308
     39 H18        25.1155   17.0659   61.4642 H         1             0.0900
     40 H19        23.6311   16.1843   61.0278 H         1             0.1170
     41 H20        23.2411   17.7650   59.1592 H         1             0.1332
     42 H21        24.8260   16.9707   59.0048 H         1             0.1334
     43 H22        26.5829   16.0153   60.4853 H         1             0.2229
@<TRIPOS>BOND
     1    1    2 1 
     2    1   23 1 
     3    1   24 1 
     4    1   25 1 
     5    2   22 1 
     6    2    3 2 
     7    3    4 1 
     8    4    5 1 
     9    4   21 2 
    10    5    6 1 
    11    5   26 1 
    12    5   27 1 
    13    6    7 1 
    14    6   20 1 
    15    6    8 1 
    16    8    9 1 
    17    8   28 1 
    18    8   29 1 
    19    9   10 1 
    20    9   30 1 
    21    9   31 1 
    22   10   11 1 
    23   10   19 1 
    24   10   32 1 
    25   11   12 1 
    26   11   33 1 
    27   11   34 1 
    28   12   18 ar
    29   12   13 ar
    30   13   14 ar
    31   13   35 1 
    32   14   15 ar
    33   14   36 1 
    34   15   16 1 
    35   15   17 ar
    36   17   18 ar
    37   17   37 1 
    38   18   38 1 
    39   19   20 1 
    40   19   39 1 
    41   19   40 1 
    42   20   41 1 
    43   20   42 1 
    44   21   22 1 
    45   21   43 1 
##########                 Name:            E44356999
##########          Protonation:                   14
##########               SMILES:   c1cc([nH]c1)C[NH+]2C[C@@H]3[C@H]2CN(C3)C(=O)c4cscn4
##########            Long Name:   -2-ylmethyl)-3-aza-6-azoniabicyclo[3.2.0]heptan-3-yl]-thiazol-4-yl-methanone
##########          FlexRecCode: 1
##########               Number:                  401
##########   Ligand Source File: /raidb/db2/rgc/leads-emolecules-300/leads-emolecules-3-ch-0000004.db2.gz
##########           GlobalRank: 4728
##########                 Rank:                    1
##########               Setnum:                  150
##########             Matchnum:                 2519
##########                Cloud:                    1
##########        Electrostatic:           -25.194788
##########        Van der Waals:           -24.308712
##########  Ligand Polar Desolv:            11.543647
########## Ligand Apolar Desolv:            -1.817273
##########      Internal Energy:             0.000000
##########      Receptor Energy: 0.0
########## Receptor Desolvation:             0.000000
########## Receptor Hydrophobic:             0.000000
##########         Total Energy: -39.78
##########        Ligand Charge:             1.000000
##########            Arbitrary:    +999.9990
##########     heavy atom count:   20
##########           pose count:    1
##########        Ligand Energy:             0.000000
# num electro vdwattr vdwrepu polsolv apolsol rdesolv rhydroe totalscore fullpol fullapo
#   1   -9.22   -3.06    3.27   -1.38    0.21    0.00    0.00     -10.18   -2.78    0.42
#   2    3.77   -1.71    0.41    2.34   -0.30    0.00    0.00       4.50    5.13   -0.66
#   3    0.38   -1.40    0.24   -4.05    0.94    0.00    0.00      -3.89   -9.41    2.19
#   4   -0.43   -0.77    0.09    0.78   -0.15    0.00    0.00      -0.47    2.03   -0.38
#   5    1.26   -0.64    0.07   -0.97   -0.11    0.00    0.00      -0.39   -2.98   -0.33
#   6   -0.20   -0.58    0.03    0.13   -0.16    0.00    0.00      -0.77    0.40   -0.48
#   7    7.69   -0.95    0.11   -4.21    0.23    0.00    0.00       2.88  -11.28    0.62
#   8  -10.60   -0.03    0.00    4.63    0.16    0.00    0.00      -5.84   16.96    0.58
#   9   -1.44   -1.15    0.24    0.86   -0.16    0.00    0.00      -1.64    2.13   -0.39
#  10    1.62   -1.74    0.49    0.01   -0.23    0.00    0.00       0.15    0.03   -0.67
#  11    2.01   -1.12    0.32   -0.97   -0.14    0.00    0.00       0.10   -3.50   -0.49
#  12    1.51   -0.71    0.05   -0.92   -0.13    0.00    0.00      -0.21   -3.65   -0.51
#  13   -0.36   -0.97    0.11   -0.06   -0.30    0.00    0.00      -1.59   -0.22   -1.01
#  14   11.78   -2.42    1.35   -3.74    0.39    0.00    0.00       7.35  -10.97    1.14
#  15   -0.33   -0.88    0.15    0.96   -0.22    0.00    0.00      -0.33    2.33   -0.53
#  16   -0.74   -0.93    0.16    0.60   -0.19    0.00    0.00      -1.10    1.31   -0.42
#  17   -0.11   -1.72    0.62   -0.29   -0.40    0.00    0.00      -1.90   -0.53   -0.72
#  18   -1.06   -2.00    0.46   -1.46   -0.15    0.00    0.00      -4.21   -2.42   -0.25
#  19    0.94   -5.35    1.92    2.50   -0.53    0.00    0.00      -0.51    3.78   -0.80
#  20   -0.09   -3.09    1.06   -0.12   -0.48    0.00    0.00      -2.72   -0.20   -0.79
#  21   -0.94   -1.84    0.45   -2.88    0.80    0.00    0.00      -4.41   -5.43    1.51
#  22   -0.23   -0.32    0.05    0.40   -0.08    0.00    0.00      -0.20    1.29   -0.26
#  23   -0.27   -0.25    0.06    0.27   -0.06    0.00    0.00      -0.25    1.13   -0.26
#  24   -1.37   -0.20    0.03    1.32   -0.06    0.00    0.00      -0.29    6.44   -0.28
#  25   -1.36   -0.27    0.03    0.92   -0.07    0.00    0.00      -0.76    3.34   -0.26
#  26   -1.42   -0.14    0.01    0.68   -0.04    0.00    0.00      -0.90    5.29   -0.28
#  27   -3.93   -0.63    0.47    2.30   -0.11    0.00    0.00      -1.90    5.86   -0.28
#  28   -3.10   -0.51    0.32    1.37   -0.06    0.00    0.00      -1.98    4.06   -0.18
#  29   -2.14   -0.19    0.05    0.36   -0.04    0.00    0.00      -1.97    2.51   -0.28
#  30   -0.55   -0.09    0.00    0.08   -0.03    0.00    0.00      -0.59    0.89   -0.28
#  31   -1.12   -0.14    0.01    0.39   -0.04    0.00    0.00      -0.91    2.73   -0.28
#  32  -12.43   -0.07    0.01    3.76    0.21    0.00    0.00      -8.52   10.87    0.60
#  33   -2.97   -0.57    0.37    3.13   -0.11    0.00    0.00      -0.16    7.78   -0.28
#  34   -0.89   -0.40    0.22    0.60   -0.10    0.00    0.00      -0.58    1.71   -0.28
#  35   -0.82   -0.34    0.06    0.89   -0.06    0.00    0.00      -0.27    2.73   -0.17
#  36    1.41   -0.52    0.23    0.60   -0.13    0.00    0.00       1.60    1.34   -0.28
#  37    0.61   -1.15    1.05    2.73   -0.15    0.00    0.00       3.08    5.01   -0.28
@<TRIPOS>MOLECULE
E44356999
   37    40     0     0     0
SMALL
USER_CHARGES


@<TRIPOS>ATOM
      1 O1         19.6381   16.6948   63.5558 O.2       1            -0.5123
      2 C1         20.6662   16.1636   63.1811 C.2       1             0.6224
      3 N1         21.6535   16.9088   62.6459 N.am      1            -0.6090
      4 C2         23.0902   16.6349   62.6930 C.3       1             0.1214
      5 C3         23.7064   17.3379   61.4912 C.3       1            -0.1383
      6 C4         24.1198   18.7829   61.7915 C.3       1             0.0178
      7 N2         23.4062   19.1143   60.5519 N.4       1            -0.4027
      8 H1         23.9844   19.0330   59.7291 H         1             0.4351
      9 C5         22.6983   20.3998   60.6214 C.3       1             0.0612
     10 C6         23.6759   21.5242   60.3952 C.2       1            -0.0749
     11 C7         24.9963   21.3880   60.1581 C.2       1            -0.1343
     12 C8         25.5330   22.6819   60.0061 C.2       1            -0.1999
     13 C9         24.5202   23.5593   60.1562 C.2       1             0.0380
     14 N3         23.3766   22.8543   60.3894 N.pl3     1            -0.5529
     15 C10        22.5229   17.9607   60.7496 C.3       1             0.0236
     16 C11        21.5075   18.1689   61.8844 C.3       1             0.0978
     17 C12        20.8345   14.7070   63.3179 C.2       1            -0.0272
     18 C13        19.7711   13.8461   63.2639 C.2       1            -0.2250
     19 S1         20.5063   12.3496   63.4689 S.3       1             0.3093
     20 C14        22.1026   12.8489   63.6134 C.2       1            -0.0257
     21 N4         22.0352   14.1471   63.4963 N.2       1            -0.4794
     22 H2         23.5160   17.0290   63.6158 H         1             0.1004
     23 H3         23.2685   15.5614   62.6303 H         1             0.1025
     24 H4         24.4133   16.7466   60.9094 H         1             0.1568
     25 H5         23.6615   19.1966   62.6898 H         1             0.1493
     26 H6         25.1950   18.9548   61.7425 H         1             0.1465
     27 H7         21.9250   20.4306   59.8539 H         1             0.1347
     28 H8         22.2396   20.5092   61.6041 H         1             0.1514
     29 H9         25.5422   20.4582   60.0964 H         1             0.1448
     30 H10        26.5660   22.9260   59.8064 H         1             0.1500
     31 H11        24.6001   24.6347   60.0974 H         1             0.1790
     32 H12        22.4962   23.2363   60.5305 H         1             0.4187
     33 H13        22.1544   17.4562   59.8563 H         1             0.1767
     34 H14        20.4967   18.2731   61.4898 H         1             0.1157
     35 H15        21.7779   19.0297   62.4960 H         1             0.0918
     36 H16        18.7242   14.0722   63.1252 H         1             0.2096
     37 H17        22.9805   12.2383   63.7642 H         1             0.2272
@<TRIPOS>BOND
     1    1    2 2 
     2    2    3 am
     3    2   17 1 
     4    3   16 1 
     5    3    4 1 
     6    4    5 1 
     7    4   22 1 
     8    4   23 1 
     9    5   15 1 
    10    5    6 1 
    11    5   24 1 
    12    6    7 1 
    13    6   25 1 
    14    6   26 1 
    15    7    8 1 
    16    7    9 1 
    17    7   15 1 
    18    9   10 1 
    19    9   27 1 
    20    9   28 1 
    21   10   14 1 
    22   10   11 2 
    23   11   12 1 
    24   11   29 1 
    25   12   13 2 
    26   12   30 1 
    27   13   14 1 
    28   13   31 1 
    29   14   32 1 
    30   15   16 1 
    31   15   33 1 
    32   16   34 1 
    33   16   35 1 
    34   17   21 1 
    35   17   18 2 
    36   18   19 1 
    37   18   36 1 
    38   19   20 1 
    39   20   21 2 
    40   20   37 1 
##########                 Name:            E14273615
##########          Protonation:                  100
##########               SMILES:   c1ccc(cc1)Nc2[nH]c(=O)cc(n2)c3ccccc3Cl
##########            Long Name:   2-anilino-4-(2-chlorophenyl)-1H-pyrimidin-6-one
##########          FlexRecCode: 1
##########               Number:                  485
##########   Ligand Source File: /raidb/db2/rgc/leads-emolecules-300/leads-emolecules-lt300-2i-0000212.db2.gz
##########           GlobalRank: 4728
##########                 Rank:                    1
##########               Setnum:                  101
##########             Matchnum:                 5726
##########                Cloud:                    1
##########        Electrostatic:            -9.491477
##########        Van der Waals:           -30.843676
##########  Ligand Polar Desolv:             5.803979
########## Ligand Apolar Desolv:            -5.244699
##########      Internal Energy:             0.000000
##########      Receptor Energy: 0.0
########## Receptor Desolvation:             0.000000
########## Receptor Hydrophobic:             0.000000
##########         Total Energy: -39.78
##########        Ligand Charge:             0.000000
##########            Arbitrary:    +999.9990
##########     heavy atom count:   21
##########           pose count:    1
##########        Ligand Energy:             0.000000
# num electro vdwattr vdwrepu polsolv apolsol rdesolv rhydroe totalscore fullpol fullapo
#   1   -0.60   -8.23    7.61    0.17   -0.56    0.00    0.00      -1.61    0.27   -0.92
#   2    0.01   -2.53    0.81    0.04   -0.18    0.00    0.00      -1.86    0.06   -0.30
#   3   -1.52   -2.48    0.68   -0.01   -0.29    0.00    0.00      -3.62   -0.02   -0.46
#   4   -0.70   -3.34    1.20   -0.14   -0.31    0.00    0.00      -3.29   -0.21   -0.47
#   5   -0.18   -4.37    1.72   -0.18   -0.32    0.00    0.00      -3.33   -0.27   -0.47
#   6   -0.32   -3.25    0.98   -0.01   -0.29    0.00    0.00      -2.89   -0.01   -0.44
#   7   -0.49   -2.34    0.65    0.11   -0.26    0.00    0.00      -2.31    0.18   -0.40
#   8    2.63   -1.91    0.39   -0.58   -0.37    0.00    0.00       0.15   -0.98   -0.63
#   9   -1.71   -2.16    0.58    1.01   -0.27    0.00    0.00      -2.55    1.68   -0.45
#  10    2.21   -1.83    0.36   -1.84   -0.39    0.00    0.00      -1.49   -3.05   -0.65
#  11   -2.09   -2.20    0.33    3.85    0.29    0.00    0.00       0.19    6.14    0.46
#  12   -2.00   -2.99    5.52    0.35    0.91    0.00    0.00       1.79    0.66    1.70
#  13    4.46   -2.12    0.76   -0.21   -2.28    0.00    0.00       0.62   -0.42   -4.65
#  14   -0.93   -2.69    1.28   -0.67    0.51    0.00    0.00      -2.50   -1.38    1.05
#  15   -0.82   -1.68    0.47    0.04   -0.30    0.00    0.00      -2.29    0.08   -0.67
#  16    1.52   -1.73    0.33    0.07   -0.20    0.00    0.00      -0.01    0.14   -0.40
#  17    1.95   -1.31    0.14    0.02   -0.20    0.00    0.00       0.61    0.05   -0.47
#  18    1.70   -0.99    0.06   -0.04   -0.18    0.00    0.00       0.55   -0.11   -0.47
#  19    0.73   -1.44    0.15   -0.08   -0.19    0.00    0.00      -0.84   -0.19   -0.47
#  20    0.33   -1.60    0.33   -0.12   -0.20    0.00    0.00      -1.26   -0.27   -0.46
#  21   -7.78   -2.09    0.50    0.82    0.60    0.00    0.00      -7.95    1.51    1.11
#  22    1.84   -0.40    0.05    0.11   -0.13    0.00    0.00       1.47    0.24   -0.28
#  23    0.96   -0.85    0.45    0.58   -0.16    0.00    0.00       0.97    1.01   -0.28
#  24   -0.75   -1.59    1.60    0.65   -0.19    0.00    0.00      -0.28    0.96   -0.28
#  25    0.35   -0.97    0.92    0.11   -0.17    0.00    0.00       0.24    0.19   -0.28
#  26    0.39   -0.72    0.58   -0.36   -0.14    0.00    0.00      -0.25   -0.71   -0.28
#  27   -0.04   -0.17    0.11    0.32    0.20    0.00    0.00       0.43    0.92    0.59
#  28   -0.57   -0.07    0.01    1.33    0.29    0.00    0.00       0.99    2.73    0.59
#  29   -2.80   -0.62    0.28   -0.14   -0.10    0.00    0.00      -3.39   -0.30   -0.22
#  30   -3.55   -0.48    0.21    0.02   -0.10    0.00    0.00      -3.89    0.07   -0.28
#  31   -1.59   -0.16    0.01    0.06   -0.04    0.00    0.00      -1.73    0.38   -0.28
#  32   -0.60   -0.50    0.11    0.25   -0.11    0.00    0.00      -0.86    0.61   -0.28
#  33    0.51   -0.49    0.24    0.26   -0.10    0.00    0.00       0.42    0.73   -0.28
@<TRIPOS>MOLECULE
E14273615
   33    35     0     0     0
SMALL
USER_CHARGES


@<TRIPOS>ATOM
      1 Cl1        16.0657   16.2767   63.2318 Cl        1            -0.0477
      2 C1         16.1884   15.5999   64.8258 C.ar      1             0.0006
      3 C2         15.1143   15.6689   65.6919 C.ar      1            -0.1161
      4 C3         15.2110   15.1297   66.9615 C.ar      1            -0.0918
      5 C4         16.3824   14.5181   67.3726 C.ar      1            -0.1178
      6 C5         17.4621   14.4427   66.5173 C.ar      1            -0.0789
      7 C6         17.3702   14.9796   65.2333 C.ar      1            -0.0465
      8 C7         18.5241   14.8968   64.3082 C.2       1             0.2616
      9 C8         19.4073   13.8300   64.3896 C.2       1            -0.3201
     10 C9         20.4895   13.7824   63.4982 C.2       1             0.5458
     11 O1         21.2872   12.8596   63.5390 O.2       1            -0.5361
     12 N1         20.6328   14.7744   62.5948 N.am      1            -0.6488
     13 C10        19.7375   15.7993   62.5568 C.2       1             0.6328
     14 N2         19.8998   16.7978   61.6311 N.pl3     1            -0.6415
     15 C11        21.0662   17.5696   61.6322 C.ar      1             0.1528
     16 C12        21.5434   18.1112   60.4456 C.ar      1            -0.0980
     17 C13        22.6954   18.8727   60.4500 C.ar      1            -0.1003
     18 C14        23.3741   19.0960   61.6341 C.ar      1            -0.1272
     19 C15        22.9018   18.5578   62.8172 C.ar      1            -0.1020
     20 C16        21.7467   17.8007   62.8206 C.ar      1            -0.1401
     21 N3         18.7164   15.8492   63.3852 N.2       1            -0.5558
     22 H1         14.1976   16.1453   65.3771 H         1             0.1377
     23 H2         14.3689   15.1863   67.6354 H         1             0.1357
     24 H3         16.4515   14.0993   68.3657 H         1             0.1354
     25 H4         18.3754   13.9650   66.8399 H         1             0.1373
     26 H5         19.2646   13.0518   65.1248 H         1             0.1565
     27 H6         21.3755   14.7574   61.9712 H         1             0.4135
     28 H7         19.2056   16.9690   60.9755 H         1             0.4225
     29 H8         21.0142   17.9366   59.5205 H         1             0.1361
     30 H9         23.0670   19.2942   59.5276 H         1             0.1256
     31 H10        24.2750   19.6916   61.6348 H         1             0.1238
     32 H11        23.4344   18.7335   63.7401 H         1             0.1268
     33 H12        21.3758   17.3848   63.7458 H         1             0.1243
@<TRIPOS>BOND
     1    1    2 1 
     2    2    7 ar
     3    2    3 ar
     4    3    4 ar
     5    3   22 1 
     6    4    5 ar
     7    4   23 1 
     8    5    6 ar
     9    5   24 1 
    10    6    7 ar
    11    6   25 1 
    12    7    8 1 
    13    8   21 1 
    14    8    9 2 
    15    9   10 1 
    16    9   26 1 
    17   10   11 2 
    18   10   12 am
    19   12   13 1 
    20   12   27 1 
    21   13   14 1 
    22   13   21 2 
    23   14   15 1 
    24   14   28 1 
    25   15   20 ar
    26   15   16 ar
    27   16   17 ar
    28   16   29 1 
    29   17   18 ar
    30   17   30 1 
    31   18   19 ar
    32   18   31 1 
    33   19   20 ar
    34   19   32 1 
    35   20   33 1 
##########                 Name:              E656590
##########          Protonation:                  100
##########               SMILES:   Cc1ccc(c(c1)C)NCN2C(=O)c3ccccc3C2=O
##########            Long Name:   2-[(2,4-dimethylanilino)methyl]isoindoline-1,3-dione
##########          FlexRecCode: 1
##########               Number:                  421
##########   Ligand Source File: /raidb/db2/rgc/leads-emolecules-300/leads-lt300-emolecules-1j-0000089.db2.gz
##########           GlobalRank: 4750
##########                 Rank:                    1
##########               Setnum:                   31
##########             Matchnum:                 1106
##########                Cloud:                    1
##########        Electrostatic:           -10.361124
##########        Van der Waals:           -29.666218
##########  Ligand Polar Desolv:             4.143804
########## Ligand Apolar Desolv:            -3.885815
##########      Internal Energy:             0.000000
##########      Receptor Energy: 0.0
########## Receptor Desolvation:             0.000000
########## Receptor Hydrophobic:             0.000000
##########         Total Energy: -39.77
##########        Ligand Charge:             0.000000
##########            Arbitrary:    +999.9990
##########     heavy atom count:   21
##########           pose count:    1
##########        Ligand Energy:             0.000000
# num electro vdwattr vdwrepu polsolv apolsol rdesolv rhydroe totalscore fullpol fullapo
#   1   -1.34   -1.93    0.98    0.08   -0.13    0.00    0.00      -2.34    0.12   -0.20
#   2   -1.83   -2.48    0.69    0.36   -0.26    0.00    0.00      -3.52    0.57   -0.41
#   3   -1.08   -3.10    1.21    0.30   -0.27    0.00    0.00      -2.93    0.51   -0.45
#   4   -2.24   -2.91    1.56    0.60   -0.22    0.00    0.00      -3.22    1.01   -0.38
#   5    1.78   -2.64    1.19   -0.48   -0.45    0.00    0.00      -0.60   -0.76   -0.71
#   6   -4.70   -2.55    0.81    1.08    1.02    0.00    0.00      -4.34    1.81    1.70
#   7    1.76   -1.51    0.52   -0.38   -0.87    0.00    0.00      -0.48   -0.63   -1.45
#   8   -2.96   -1.59    0.22    1.14    1.12    0.00    0.00      -2.07    1.95    1.91
#   9    1.61   -1.94    0.48   -1.41   -0.39    0.00    0.00      -1.65   -2.45   -0.68
#  10   -2.01   -2.89    0.77    1.99    0.22    0.00    0.00      -1.92    3.20    0.35
#  11   -0.04   -1.68    0.44    0.15   -0.20    0.00    0.00      -1.33    0.33   -0.44
#  12    0.10   -1.54    0.28   -0.03   -0.20    0.00    0.00      -1.39   -0.07   -0.48
#  13    0.37   -1.39    0.28   -0.13   -0.16    0.00    0.00      -1.03   -0.39   -0.47
#  14    0.50   -1.49    0.32   -0.15   -0.17    0.00    0.00      -0.99   -0.41   -0.47
#  15    0.11   -1.43    0.17   -0.04   -0.21    0.00    0.00      -1.39   -0.09   -0.48
#  16   -0.21   -1.55    0.30    0.12   -0.19    0.00    0.00      -1.52    0.29   -0.44
#  17    3.92   -1.72    0.39   -1.02   -0.32    0.00    0.00       1.25   -2.17   -0.68
#  18   -7.49   -2.59    1.71    1.45    0.21    0.00    0.00      -6.70    2.91    0.43
#  19   -0.96   -2.93    0.79    0.38   -0.27    0.00    0.00      -2.99    0.59   -0.41
#  20    0.13   -3.76    1.99    0.06   -0.14    0.00    0.00      -1.73    0.08   -0.20
#  21   -0.85   -2.79    0.88    0.21   -0.29    0.00    0.00      -2.83    0.33   -0.44
#  22    0.52   -1.05    1.53   -0.03   -0.15    0.00    0.00       0.83   -0.05   -0.28
#  23    0.62   -0.38    0.05   -0.02   -0.14    0.00    0.00       0.13   -0.04   -0.28
#  24    0.99   -0.78    0.58    0.00   -0.17    0.00    0.00       0.62    0.00   -0.28
#  25    0.80   -1.18    1.84   -0.29   -0.17    0.00    0.00       1.01   -0.49   -0.28
#  26    1.56   -0.60    0.23   -0.34   -0.07    0.00    0.00       0.78   -0.70   -0.15
#  27    2.15   -0.06    0.00   -0.28    0.23    0.00    0.00       2.04   -0.56    0.45
#  28    0.20   -0.58    0.19    0.01   -0.15    0.00    0.00      -0.33    0.02   -0.27
#  29    0.78   -0.66    0.50   -0.11   -0.09    0.00    0.00       0.43   -0.23   -0.20
#  30   -0.60   -0.35    0.09    0.12   -0.09    0.00    0.00      -0.84    0.36   -0.28
#  31   -0.65   -0.22    0.03    0.30   -0.05    0.00    0.00      -0.59    1.65   -0.28
#  32   -1.11   -0.33    0.11    0.40   -0.07    0.00    0.00      -0.99    1.71   -0.28
#  33   -0.49   -0.31    0.04    0.18   -0.10    0.00    0.00      -0.68    0.51   -0.28
#  34   -0.27   -1.74    2.21   -0.03   -0.19    0.00    0.00      -0.01   -0.04   -0.28
#  35   -0.68   -1.99    4.42    0.03   -0.18    0.00    0.00       1.59    0.04   -0.28
#  36    0.21   -1.39    0.94    0.01   -0.15    0.00    0.00      -0.38    0.01   -0.22
#  37    1.04   -0.67    0.23   -0.09   -0.15    0.00    0.00       0.36   -0.16   -0.28
@<TRIPOS>MOLECULE
E656590
   37    39     0     0     0
SMALL
USER_CHARGES


@<TRIPOS>ATOM
      1 C1         13.4919   16.5653   65.2308 C.3       1            -0.1081
      2 C2         14.8550   15.9227   65.2175 C.ar      1            -0.1307
      3 C3         15.5896   15.8874   64.0462 C.ar      1            -0.0788
      4 C4         16.8391   15.2998   64.0305 C.ar      1            -0.1706
      5 C5         17.3580   14.7435   65.1931 C.ar      1             0.1897
      6 N1         18.6218   14.1489   65.1809 N.pl3     1            -0.7465
      7 C6         19.2142   13.7132   63.9137 C.3       1             0.3352
      8 N2         20.4770   14.4230   63.6955 N.am      1            -0.5902
      9 C7         21.6740   13.8236   63.5634 C.2       1             0.5740
     10 O1         21.8762   12.6268   63.6061 O.2       1            -0.4504
     11 C8         22.7022   14.8654   63.3575 C.ar      1            -0.1408
     12 C9         24.0745   14.8463   63.1664 C.ar      1            -0.0446
     13 C10        24.7618   16.0384   62.9995 C.ar      1            -0.0942
     14 C11        24.0876   17.2450   63.0223 C.ar      1            -0.0954
     15 C12        22.7150   17.2794   63.2125 C.ar      1            -0.0443
     16 C13        22.0148   16.0956   63.3808 C.ar      1            -0.1441
     17 C14        20.5914   15.7595   63.5950 C.2       1             0.5776
     18 O2         19.6784   16.5568   63.6698 O.2       1            -0.4630
     19 C15        16.6176   14.7808   66.3676 C.ar      1            -0.1476
     20 C16        17.1767   14.1793   67.6312 C.3       1            -0.1068
     21 C17        15.3707   15.3748   66.3775 C.ar      1            -0.0812
     22 H1         13.2560   16.9379   64.2340 H         1             0.0648
     23 H2         12.7459   15.8287   65.5292 H         1             0.0630
     24 H3         13.4878   17.3941   65.9388 H         1             0.0622
     25 H4         15.1855   16.3197   63.1427 H         1             0.1206
     26 H5         17.4121   15.2723   63.1156 H         1             0.1308
     27 H6         19.1072   14.0242   66.0114 H         1             0.4040
     28 H7         19.4021   12.6402   63.9505 H         1             0.1153
     29 H8         18.5274   13.9341   63.0968 H         1             0.1150
     30 H9         24.6065   13.9066   63.1480 H         1             0.1428
     31 H10        25.8314   16.0245   62.8508 H         1             0.1437
     32 H11        24.6342   18.1672   62.8914 H         1             0.1436
     33 H12        22.1936   18.2251   63.2298 H         1             0.1426
     34 H13        16.4582   14.3032   68.4414 H         1             0.0647
     35 H14        17.3681   13.1177   67.4745 H         1             0.0686
     36 H15        18.1082   14.6818   67.8915 H         1             0.0585
     37 H16        14.7961   15.4077   67.2913 H         1             0.1207
@<TRIPOS>BOND
     1    1    2 1 
     2    1   22 1 
     3    1   23 1 
     4    1   24 1 
     5    2   21 ar
     6    2    3 ar
     7    3    4 ar
     8    3   25 1 
     9    4    5 ar
    10    4   26 1 
    11    5    6 1 
    12    5   19 ar
    13    6    7 1 
    14    6   27 1 
    15    7    8 1 
    16    7   28 1 
    17    7   29 1 
    18    8   17 am
    19    8    9 am
    20    9   10 2 
    21    9   11 1 
    22   11   16 ar
    23   11   12 ar
    24   12   13 ar
    25   12   30 1 
    26   13   14 ar
    27   13   31 1 
    28   14   15 ar
    29   14   32 1 
    30   15   16 ar
    31   15   33 1 
    32   16   17 1 
    33   17   18 2 
    34   19   20 1 
    35   19   21 ar
    36   20   34 1 
    37   20   35 1 
    38   20   36 1 
    39   21   37 1 
##########                 Name:             E1327909
##########          Protonation:                  100
##########               SMILES:   CCOC(=O)c1ccc(cc1)Nc2c3ccccc3ncn2
##########            Long Name:   ethyl
##########          FlexRecCode: 1
##########               Number:                  152
##########   Ligand Source File: /raidb/db2/rgc/leads-emolecules-300/leads-emolecules-2f-0000208.db2.gz
##########           GlobalRank: 4776
##########                 Rank:                    1
##########               Setnum:                  291
##########             Matchnum:                 4309
##########                Cloud:                    1
##########        Electrostatic:            -6.050690
##########        Van der Waals:           -33.796524
##########  Ligand Polar Desolv:             5.645646
########## Ligand Apolar Desolv:            -5.561746
##########      Internal Energy:             0.000000
##########      Receptor Energy: 0.0
########## Receptor Desolvation:             0.000000
########## Receptor Hydrophobic:             0.000000
##########         Total Energy: -39.76
##########        Ligand Charge:             0.000000
##########            Arbitrary:    +999.9990
##########     heavy atom count:   22
##########           pose count:    1
##########        Ligand Energy:             0.000000
# num electro vdwattr vdwrepu polsolv apolsol rdesolv rhydroe totalscore fullpol fullapo
#   1   -1.08   -1.31    0.22   -0.17   -0.14    0.00    0.00      -2.48   -0.27   -0.21
#   2    0.47   -2.06    1.06   -0.05   -0.08    0.00    0.00      -0.66   -0.08   -0.12
#   3   -2.75   -2.76    1.59    0.62    0.18    0.00    0.00      -3.12    0.99    0.29
#   4    5.64   -2.38    0.51   -1.72   -0.11    0.00    0.00       1.94   -2.61   -0.16
#   5   -6.94   -3.04    1.13    3.32   -0.26    0.00    0.00      -5.78    4.96   -0.39
#   6   -1.96   -2.52    0.81    0.31   -0.26    0.00    0.00      -3.62    0.50   -0.41
#   7   -0.37   -2.54    0.56   -0.02   -0.30    0.00    0.00      -2.67   -0.03   -0.46
#   8   -1.82   -2.11    0.35   -0.27   -0.29    0.00    0.00      -4.14   -0.43   -0.46
#   9    2.82   -2.13    0.42    0.06   -0.40    0.00    0.00       0.78    0.10   -0.68
#  10   -7.46   -1.89    0.34   -0.70    0.54    0.00    0.00      -9.17   -1.32    1.02
#  11    2.85   -1.59    0.25   -0.38   -1.13    0.00    0.00       0.00   -0.66   -1.98
#  12   -2.53   -2.04    0.35    1.39    0.88    0.00    0.00      -1.96    2.26    1.43
#  13    1.20   -3.10    1.10   -0.89   -2.05    0.00    0.00      -3.75   -1.37   -3.16
#  14   -2.32   -3.04    0.90    1.99    1.27    0.00    0.00      -1.21    3.24    2.06
#  15    0.30   -1.96    0.50   -0.27   -0.38    0.00    0.00      -1.81   -0.52   -0.73
#  16    0.15   -1.93    0.53    0.10   -0.22    0.00    0.00      -1.37    0.21   -0.47
#  17    0.20   -1.35    0.21   -0.06   -0.18    0.00    0.00      -1.18   -0.15   -0.47
#  18    0.42   -1.19    0.15   -0.20   -0.18    0.00    0.00      -0.99   -0.52   -0.47
#  19   -0.03   -1.48    0.39   -0.10   -0.19    0.00    0.00      -1.41   -0.25   -0.45
#  20   -0.56   -1.69    0.61    0.12   -0.20    0.00    0.00      -1.72    0.24   -0.40
#  21   -1.92   -3.31    1.23    0.20   -0.24    0.00    0.00      -4.05    0.33   -0.40
#  22   -0.43   -3.18    1.29    0.10   -0.28    0.00    0.00      -2.50    0.16   -0.46
#  23    0.42   -0.41    0.09    0.19   -0.15    0.00    0.00       0.14    0.36   -0.28
#  24    0.54   -0.49    0.14    0.09   -0.14    0.00    0.00       0.14    0.18   -0.28
#  25    0.48   -0.37    0.08    0.07   -0.12    0.00    0.00       0.15    0.16   -0.28
#  26    0.60   -1.17    2.56   -0.08   -0.16    0.00    0.00       1.74   -0.14   -0.28
#  27    0.47   -1.18    2.51   -0.08   -0.16    0.00    0.00       1.56   -0.14   -0.28
#  28    0.64   -0.60    0.11    0.33   -0.16    0.00    0.00       0.33    0.56   -0.27
#  29    1.12   -0.46    0.11    0.63   -0.13    0.00    0.00       1.27    1.33   -0.28
#  30    4.94   -0.03    0.00    1.19    0.20    0.00    0.00       6.30    2.84    0.48
#  31   -0.02   -1.25    1.14   -0.20   -0.18    0.00    0.00      -0.51   -0.32   -0.28
#  32   -0.43   -0.47    0.15   -0.08   -0.11    0.00    0.00      -0.93   -0.21   -0.28
#  33   -0.55   -0.21    0.02    0.20   -0.06    0.00    0.00      -0.59    0.99   -0.28
#  34   -0.88   -0.17    0.01    0.26   -0.05    0.00    0.00      -0.83    1.42   -0.28
#  35    0.22   -0.28    0.05    0.40   -0.07    0.00    0.00       0.32    1.35   -0.23
#  36    1.47   -1.16    1.25   -0.30   -0.13    0.00    0.00       1.12   -0.49   -0.22
#  37    1.04   -1.01    1.37   -0.35   -0.14    0.00    0.00       0.91   -0.63   -0.26
@<TRIPOS>MOLECULE
E1327909
   37    39     0     0     0
SMALL
USER_CHARGES


@<TRIPOS>ATOM
      1 C1         11.3964   14.9171   64.8829 C.3       1            -0.1526
      2 C2         12.0279   14.6810   66.2565 C.3       1             0.0609
      3 O1         13.4335   14.4722   66.1050 O.3       1            -0.3502
      4 C3         14.2231   15.5632   66.1566 C.2       1             0.5105
      5 O2         13.8925   16.5211   66.8270 O.2       1            -0.5057
      6 C4         15.4880   15.5942   65.4000 C.ar      1            -0.1466
      7 C5         16.6696   15.1368   65.9914 C.ar      1            -0.0369
      8 C6         17.8485   15.1671   65.2823 C.ar      1            -0.1630
      9 C7         17.8657   15.6521   63.9775 C.ar      1             0.1920
     10 N1         19.0599   15.6813   63.2631 N.pl3     1            -0.6382
     11 C8         20.0388   14.7420   63.5166 C.ar      1             0.4623
     12 N2         19.7220   13.5225   63.9315 N.ar      1            -0.5785
     13 C9         20.6510   12.6130   64.1775 C.ar      1             0.3437
     14 N3         21.9342   12.8453   64.0322 N.ar      1            -0.5408
     15 C10        22.3649   14.0456   63.6172 C.ar      1             0.1864
     16 C11        23.7274   14.3286   63.4504 C.ar      1            -0.1060
     17 C12        24.1106   15.5659   63.0257 C.ar      1            -0.0732
     18 C13        23.1693   16.5552   62.7545 C.ar      1            -0.1253
     19 C14        21.8356   16.3134   62.9067 C.ar      1            -0.0761
     20 C15        21.4085   15.0516   63.3351 C.ar      1            -0.1888
     21 C16        16.6909   16.1077   63.3855 C.ar      1            -0.1256
     22 C17        15.5075   16.0746   64.0868 C.ar      1            -0.0302
     23 H1         10.3244   15.0763   64.9985 H         1             0.0808
     24 H2         11.8468   15.7964   64.4225 H         1             0.0670
     25 H3         11.5684   14.0469   64.2495 H         1             0.0671
     26 H4         11.8561   15.5512   66.8898 H         1             0.0688
     27 H5         11.5777   13.8016   66.7171 H         1             0.0689
     28 H6         16.6571   14.7610   67.0038 H         1             0.1433
     29 H7         18.7616   14.8143   65.7386 H         1             0.1350
     30 H8         19.2042   16.3619   62.5872 H         1             0.4238
     31 H9         20.3390   11.6351   64.5134 H         1             0.1994
     32 H10        24.4691   13.5714   63.6576 H         1             0.1427
     33 H11        25.1610   15.7823   62.8976 H         1             0.1361
     34 H12        23.4995   17.5272   62.4195 H         1             0.1333
     35 H13        21.1145   17.0887   62.6941 H         1             0.1268
     36 H14        16.7076   16.4836   62.3731 H         1             0.1469
     37 H15        14.5955   16.4236   63.6253 H         1             0.1421
@<TRIPOS>BOND
     1    1    2 1 
     2    1   23 1 
     3    1   24 1 
     4    1   25 1 
     5    2    3 1 
     6    2   26 1 
     7    2   27 1 
     8    3    4 1 
     9    4    5 2 
    10    4    6 1 
    11    6   22 ar
    12    6    7 ar
    13    7    8 ar
    14    7   28 1 
    15    8    9 ar
    16    8   29 1 
    17    9   10 1 
    18    9   21 ar
    19   10   11 1 
    20   10   30 1 
    21   11   20 ar
    22   11   12 ar
    23   12   13 ar
    24   13   14 ar
    25   13   31 1 
    26   14   15 ar
    27   15   20 ar
    28   15   16 ar
    29   16   17 ar
    30   16   32 1 
    31   17   18 ar
    32   17   33 1 
    33   18   19 ar
    34   18   34 1 
    35   19   20 ar
    36   19   35 1 
    37   21   22 ar
    38   21   36 1 
    39   22   37 1 
##########                 Name:            E24117074
##########          Protonation:                   93
##########               SMILES:   CC(=O)Nc1ccc(c(c1)NC(=O)c2ccc(cc2)C#N)F
##########            Long Name:   N-(5-acetamido-2-fluoro-phenyl)-4-cyano-benzamide
##########          FlexRecCode: 1
##########               Number:                  316
##########   Ligand Source File: /raidb/db2/rgc/leads-emolecules-300/leads-emolecules-2h-0000341.db2.gz
##########           GlobalRank: 4776
##########                 Rank:                    1
##########               Setnum:                   29
##########             Matchnum:                  384
##########                Cloud:                    1
##########        Electrostatic:            -8.727323
##########        Van der Waals:           -33.757320
##########  Ligand Polar Desolv:             6.188727
########## Ligand Apolar Desolv:            -3.460056
##########      Internal Energy:             0.000000
##########      Receptor Energy: 0.0
########## Receptor Desolvation:             0.000000
########## Receptor Hydrophobic:             0.000000
##########         Total Energy: -39.76
##########        Ligand Charge:             0.000000
##########            Arbitrary:    +999.9990
##########     heavy atom count:   22
##########           pose count:    1
##########        Ligand Energy:             0.000000
# num electro vdwattr vdwrepu polsolv apolsol rdesolv rhydroe totalscore fullpol fullapo
#   1    2.14   -0.97    0.16   -0.25   -0.08    0.00    0.00       1.00   -0.65   -0.21
#   2   -3.35   -1.27    0.11   -0.19   -0.27    0.00    0.00      -4.98   -0.46   -0.65
#   3    0.99   -1.86    0.51    1.74    0.15    0.00    0.00       1.54    3.83    0.34
#   4    3.41   -1.08    0.08   -0.19    0.63    0.00    0.00       2.85   -0.50    1.65
#   5   -0.18   -1.39    0.24   -0.11   -0.28    0.00    0.00      -1.71   -0.26   -0.68
#   6    0.22   -1.58    0.31    0.16   -0.17    0.00    0.00      -1.06    0.37   -0.40
#   7    0.06   -2.53    0.94    0.10   -0.24    0.00    0.00      -1.67    0.19   -0.47
#   8    0.21   -2.30    0.59   -0.03   -0.20    0.00    0.00      -1.73   -0.05   -0.34
#   9   -0.72   -2.16    0.85    0.07   -0.30    0.00    0.00      -2.26    0.11   -0.46
#  10    0.61   -1.80    0.42   -0.06   -0.37    0.00    0.00      -1.20   -0.11   -0.67
#  11   -4.72   -1.88    0.40   -0.65    0.91    0.00    0.00      -5.93   -1.13    1.60
#  12    6.69   -1.79    0.27    0.13   -0.36    0.00    0.00       4.95    0.23   -0.64
#  13   -7.61   -2.11    0.88    0.93    0.17    0.00    0.00      -7.73    1.81    0.33
#  14   -1.48   -2.15    0.50   -0.21   -0.25    0.00    0.00      -3.60   -0.35   -0.41
#  15   -0.76   -2.47    0.53   -0.26   -0.28    0.00    0.00      -3.24   -0.41   -0.44
#  16   -0.57   -2.95    0.94   -0.22   -0.29    0.00    0.00      -3.09   -0.34   -0.45
#  17    0.06   -2.81    1.93   -0.03   -0.25    0.00    0.00      -1.09   -0.04   -0.40
#  18   -0.95   -3.16    1.72   -0.14   -0.27    0.00    0.00      -2.81   -0.24   -0.45
#  19   -0.79   -2.99    0.97   -0.11   -0.27    0.00    0.00      -3.19   -0.18   -0.46
#  20    2.33   -2.39    0.72   -0.08   -0.95    0.00    0.00      -0.37   -0.12   -1.46
#  21   -3.42   -2.88    1.15    1.42    0.47    0.00    0.00      -3.26    2.17    0.71
#  22   -0.38   -1.69    0.41    0.07   -0.18    0.00    0.00      -1.76    0.17   -0.40
#  23   -1.12   -0.16    0.01    0.04   -0.04    0.00    0.00      -1.29    0.24   -0.28
#  24   -1.69   -0.25    0.03    0.20   -0.07    0.00    0.00      -1.78    0.80   -0.28
#  25   -1.07   -0.78    0.59    0.36   -0.10    0.00    0.00      -1.00    0.98   -0.28
#  26   -2.78   -0.01    0.00    0.33    0.09    0.00    0.00      -2.38    2.09    0.59
#  27   -0.57   -0.22    0.02   -0.15   -0.06    0.00    0.00      -0.97   -0.58   -0.22
#  28   -0.61   -1.04    1.61    0.03   -0.13    0.00    0.00      -0.15    0.06   -0.28
#  29    2.33   -0.04    0.00    0.98    0.20    0.00    0.00       3.48    2.25    0.45
#  30    0.80   -0.53    0.09    0.95   -0.12    0.00    0.00       1.19    1.70   -0.22
#  31    0.30   -0.70    0.16    0.80   -0.17    0.00    0.00       0.39    1.34   -0.28
#  32    1.17   -0.80    0.50    0.42   -0.15    0.00    0.00       1.14    0.79   -0.28
#  33    1.79   -0.86    0.49    0.18   -0.15    0.00    0.00       1.46    0.32   -0.26
#  34    0.93   -0.38    0.10   -0.06   -0.07    0.00    0.00       0.53   -0.18   -0.22
@<TRIPOS>MOLECULE
E24117074
   34    35     0     0     0
SMALL
USER_CHARGES


@<TRIPOS>ATOM
      1 C1         23.3056   19.5426   62.2040 C.3       1            -0.1738
      2 C2         22.7311   18.2376   62.6920 C.2       1             0.5125
      3 O1         21.5924   18.1937   63.1071 O.2       1            -0.5231
      4 N1         23.4829   17.1191   62.6670 N.am      1            -0.6733
      5 C3         22.9492   15.9066   63.1204 C.ar      1             0.1533
      6 C4         23.7257   14.7551   63.1001 C.ar      1            -0.1042
      7 C5         23.2006   13.5575   63.5472 C.ar      1            -0.1142
      8 C6         21.9007   13.5018   64.0167 C.ar      1             0.0612
      9 F1         21.3903   12.3297   64.4536 F         1            -0.1359
     10 C7         21.1191   14.6521   64.0395 C.ar      1             0.1309
     11 N2         19.8038   14.5962   64.5144 N.am      1            -0.6635
     12 C8         18.8741   15.4402   64.0248 C.2       1             0.5616
     13 O2         19.1780   16.2500   63.1707 O.2       1            -0.5070
     14 C9         17.4843   15.3808   64.5264 C.ar      1            -0.1101
     15 C10        17.2272   14.9135   65.8169 C.ar      1            -0.0849
     16 C11        15.9329   14.8582   66.2843 C.ar      1            -0.0756
     17 C12        14.8773   15.2697   65.4672 C.ar      1             0.0056
     18 C13        15.1347   15.7371   64.1764 C.ar      1            -0.0761
     19 C14        16.4296   15.7976   63.7115 C.ar      1            -0.0548
     20 C15        13.5314   15.2118   65.9529 C.1       1             0.2440
     21 N3         12.4637   15.1659   66.3380 N.1       1            -0.3968
     22 C16        21.6466   15.8561   63.5954 C.ar      1            -0.1205
     23 H1         24.3320   19.3864   61.8722 H         1             0.0985
     24 H2         22.7074   19.9143   61.3720 H         1             0.0937
     25 H3         23.2926   20.2711   63.0147 H         1             0.0933
     26 H4         24.3936   17.1542   62.3349 H         1             0.4148
     27 H5         24.7410   14.7956   62.7341 H         1             0.1510
     28 H6         23.8063   12.6635   63.5297 H         1             0.1462
     29 H7         19.5614   13.9500   65.1960 H         1             0.4156
     30 H8         18.0433   14.5950   66.4484 H         1             0.1382
     31 H9         15.7341   14.4964   67.2822 H         1             0.1438
     32 H10        14.3186   16.0550   63.5444 H         1             0.1446
     33 H11        16.6290   16.1631   62.7150 H         1             0.1507
     34 H12        21.0432   16.7516   63.6160 H         1             0.1546
@<TRIPOS>BOND
     1    1    2 1 
     2    1   23 1 
     3    1   24 1 
     4    1   25 1 
     5    2    3 2 
     6    2    4 am
     7    4    5 1 
     8    4   26 1 
     9    5   22 ar
    10    5    6 ar
    11    6    7 ar
    12    6   27 1 
    13    7    8 ar
    14    7   28 1 
    15    8    9 1 
    16    8   10 ar
    17   10   11 1 
    18   10   22 ar
    19   11   12 am
    20   11   29 1 
    21   12   13 2 
    22   12   14 1 
    23   14   19 ar
    24   14   15 ar
    25   15   16 ar
    26   15   30 1 
    27   16   17 ar
    28   16   31 1 
    29   17   18 ar
    30   17   20 1 
    31   18   19 ar
    32   18   32 1 
    33   19   33 1 
    34   20   21 3 
    35   22   34 1 
##########                 Name:             E2621489
##########          Protonation:                  100
##########               SMILES:   Cc1ccc2ncc(c(=O)n2c1)C(=O)Nc3ccccc3
##########            Long Name:   7-methyl-4-oxo-N-phenyl-pyrido[1,2-a]pyrimidine-3-carboxamide
##########          FlexRecCode: 1
##########               Number:                   92
##########   Ligand Source File: /raidb/db2/rgc/leads-emolecules-300/leads-lt300-emolecules-1i-0000288.db2.gz
##########           GlobalRank: 4776
##########                 Rank:                    1
##########               Setnum:                   12
##########             Matchnum:                 3902
##########                Cloud:                    1
##########        Electrostatic:           -16.938641
##########        Van der Waals:           -26.564203
##########  Ligand Polar Desolv:             7.270260
########## Ligand Apolar Desolv:            -3.530684
##########      Internal Energy:             0.000000
##########      Receptor Energy: 0.0
########## Receptor Desolvation:             0.000000
########## Receptor Hydrophobic:             0.000000
##########         Total Energy: -39.76
##########        Ligand Charge:             0.000000
##########            Arbitrary:    +999.9990
##########     heavy atom count:   21
##########           pose count:    1
##########        Ligand Energy:             0.000000
# num electro vdwattr vdwrepu polsolv apolsol rdesolv rhydroe totalscore fullpol fullapo
#   1    0.61   -1.07    0.39   -0.34   -0.07    0.00    0.00      -0.48   -1.08   -0.21
#   2    0.26   -1.47    0.27   -0.23   -0.16    0.00    0.00      -1.32   -0.58   -0.40
#   3    0.01   -1.52    0.26    0.04   -0.35    0.00    0.00      -1.56    0.10   -0.82
#   4   -1.43   -1.64    0.33    0.28    0.55    0.00    0.00      -1.90    0.61    1.18
#   5    1.14   -1.89    0.40   -0.05   -1.14    0.00    0.00      -1.53   -0.09   -2.01
#   6    0.05   -2.59    0.94   -0.39   -0.24    0.00    0.00      -2.23   -0.75   -0.46
#   7    0.04   -1.81    0.43    0.10   -0.20    0.00    0.00      -1.44    0.22   -0.45
#   8   -2.10   -2.24    0.39    1.00    1.25    0.00    0.00      -1.70    1.59    2.00
#   9    1.22   -2.23    0.58   -0.88   -0.57    0.00    0.00      -1.88   -1.44   -0.94
#  10   -3.27   -1.69    0.23    1.74   -0.23    0.00    0.00      -3.22    3.09   -0.41
#  11    7.83   -2.01    0.38   -3.54   -0.38    0.00    0.00       2.28   -5.88   -0.64
#  12  -10.90   -2.67    1.10    4.25    0.20    0.00    0.00      -8.02    7.27    0.34
#  13   -6.29   -2.95    1.67    3.88    1.05    0.00    0.00      -2.64    6.03    1.63
#  14    1.72   -2.90    1.79   -0.61   -0.44    0.00    0.00      -0.45   -0.95   -0.68
#  15   -0.93   -3.01    0.94    0.89   -0.25    0.00    0.00      -2.37    1.40   -0.40
#  16   -0.95   -2.91    0.96    0.39   -0.31    0.00    0.00      -2.82    0.59   -0.47
#  17   -1.54   -2.33    0.55    0.26   -0.31    0.00    0.00      -3.38    0.39   -0.47
#  18   -1.10   -3.06    1.34    0.18   -0.30    0.00    0.00      -2.95    0.28   -0.47
#  19   -1.97   -2.94    1.19    0.53   -0.27    0.00    0.00      -3.46    0.89   -0.46
#  20    4.52   -1.93    0.60   -1.44   -0.30    0.00    0.00       1.44   -2.99   -0.63
#  21   -7.95   -3.61    3.87    1.86    0.16    0.00    0.00      -5.67    3.90    0.33
#  22   -0.57   -0.32    0.10    0.32   -0.06    0.00    0.00      -0.52    1.42   -0.27
#  23   -0.51   -0.88    1.50    0.24   -0.08    0.00    0.00       0.27    0.81   -0.28
#  24   -0.47   -0.14    0.01    0.10   -0.04    0.00    0.00      -0.54    0.81   -0.28
#  25   -0.18   -0.27    0.03    0.13   -0.08    0.00    0.00      -0.37    0.41   -0.25
#  26   -0.12   -1.13    1.33    0.84   -0.14    0.00    0.00       0.78    1.64   -0.28
#  27   -0.68   -0.31    0.06    0.98   -0.08    0.00    0.00      -0.03    3.30   -0.28
#  28    0.44   -0.82    0.83   -0.46   -0.14    0.00    0.00      -0.15   -0.85   -0.26
#  29    1.76   -0.06    0.00   -1.69    0.18    0.00    0.00       0.19   -3.50    0.37
#  30    0.13   -0.75    0.20   -0.68   -0.13    0.00    0.00      -1.23   -1.14   -0.22
#  31    1.07   -1.51    5.41   -0.25   -0.17    0.00    0.00       4.55   -0.42   -0.28
#  32    1.21   -0.61    0.28    0.04   -0.15    0.00    0.00       0.78    0.08   -0.28
#  33    0.61   -1.30    2.08    0.06   -0.16    0.00    0.00       1.29    0.11   -0.28
#  34    1.42   -0.71    0.29   -0.29   -0.16    0.00    0.00       0.56   -0.52   -0.28
@<TRIPOS>MOLECULE
E2621489
   34    36     0     0     0
SMALL
USER_CHARGES


@<TRIPOS>ATOM
      1 C1         24.9843   16.6817   62.9574 C.3       1            -0.1112
      2 C2         23.8601   15.7155   63.2282 C.2       1            -0.1226
      3 C3         22.6042   16.1784   63.4277 C.2       1             0.0938
      4 N1         21.5765   15.3204   63.6730 N.am      1            -0.4173
      5 C4         21.7945   13.9729   63.7222 C.2       1             0.4003
      6 C5         23.0911   13.4723   63.5179 C.2       1            -0.1332
      7 C6         24.1150   14.3388   63.2675 C.2       1            -0.0159
      8 N2         20.7954   13.1191   63.9611 N.2       1            -0.5423
      9 C7         19.5620   13.5354   64.1595 C.2       1             0.2718
     10 C8         19.2747   14.9069   64.1219 C.2       1            -0.3726
     11 C9         17.9080   15.3934   64.3404 C.2       1             0.5912
     12 O1         17.5346   16.4202   63.8044 O.2       1            -0.5307
     13 N3         17.0659   14.7032   65.1348 N.am      1            -0.6660
     14 C10        15.7631   15.1671   65.3431 C.ar      1             0.1504
     15 C11        15.1143   14.9045   66.5428 C.ar      1            -0.1244
     16 C12        13.8278   15.3639   66.7453 C.ar      1            -0.1004
     17 C13        13.1853   16.0844   65.7552 C.ar      1            -0.1393
     18 C14        13.8285   16.3475   64.5596 C.ar      1            -0.1003
     19 C15        15.1173   15.8962   64.3530 C.ar      1            -0.1482
     20 C16        20.3337   15.8121   63.8681 C.2       1             0.5302
     21 O2         20.1277   17.0123   63.8266 O.2       1            -0.5237
     22 H1         24.5976   17.7007   62.9653 H         1             0.0810
     23 H2         25.7474   16.5767   63.7285 H         1             0.0814
     24 H3         25.4212   16.4666   61.9822 H         1             0.0815
     25 H4         22.4153   17.2412   63.3919 H         1             0.1880
     26 H5         23.2753   12.4087   63.5544 H         1             0.1759
     27 H6         25.1153   13.9661   63.1043 H         1             0.1611
     28 H7         18.7738   12.8221   64.3503 H         1             0.1894
     29 H8         17.3634   13.8849   65.5621 H         1             0.4214
     30 H9         15.6152   14.3413   67.3163 H         1             0.1338
     31 H10        13.3227   15.1601   67.6780 H         1             0.1251
     32 H11        12.1790   16.4420   65.9157 H         1             0.1227
     33 H12        13.3238   16.9102   63.7880 H         1             0.1254
     34 H13        15.6208   16.1062   63.4209 H         1             0.1236
@<TRIPOS>BOND
     1    1    2 1 
     2    1   22 1 
     3    1   23 1 
     4    1   24 1 
     5    2    7 1 
     6    2    3 2 
     7    3    4 1 
     8    3   25 1 
     9    4   20 am
    10    4    5 1 
    11    5    6 1 
    12    5    8 2 
    13    6    7 2 
    14    6   26 1 
    15    7   27 1 
    16    8    9 1 
    17    9   10 2 
    18    9   28 1 
    19   10   11 1 
    20   10   20 1 
    21   11   12 2 
    22   11   13 am
    23   13   14 1 
    24   13   29 1 
    25   14   19 ar
    26   14   15 ar
    27   15   16 ar
    28   15   30 1 
    29   16   17 ar
    30   16   31 1 
    31   17   18 ar
    32   17   32 1 
    33   18   19 ar
    34   18   33 1 
    35   19   34 1 
    36   20   21 2 
##########                 Name:            E11684417
##########          Protonation:                  100
##########               SMILES:   Cn1cc[n+](c1)CC(=O)c2c(n(c(=O)n(c2=O)C)C)N
##########            Long Name:   o-1,3-dimethyl-5-[2-(3-methylimidazol-1-ium-1-yl)acetyl]pyrimidine-2,4-dione
##########          FlexRecCode: 1
##########               Number:                  588
##########   Ligand Source File: /raidb/db2/rgc/leads-emolecules-300/leads-lt300-emolecules-1i-0000382.db2.gz
##########           GlobalRank: 4776
##########                 Rank:                    1
##########               Setnum:                   86
##########             Matchnum:                 5549
##########                Cloud:                    1
##########        Electrostatic:           -18.713188
##########        Van der Waals:           -24.147549
##########  Ligand Polar Desolv:             5.876110
########## Ligand Apolar Desolv:            -2.772417
##########      Internal Energy:             0.000000
##########      Receptor Energy: 0.0
########## Receptor Desolvation:             0.000000
########## Receptor Hydrophobic:             0.000000
##########         Total Energy: -39.76
##########        Ligand Charge:             1.000000
##########            Arbitrary:    +999.9990
##########     heavy atom count:   20
##########           pose count:    1
##########        Ligand Energy:             0.000000
# num electro vdwattr vdwrepu polsolv apolsol rdesolv rhydroe totalscore fullpol fullapo
#   1   -0.36   -0.69    0.10    0.34   -0.16    0.00    0.00      -0.77    1.28   -0.59
#   2    5.47   -0.90    0.07   -2.86    0.41    0.00    0.00       2.19   -9.78    1.39
#   3   -0.45   -1.35    0.65    0.08   -0.28    0.00    0.00      -1.34    0.29   -0.98
#   4   -0.09   -1.64    0.61   -0.25   -0.34    0.00    0.00      -1.70   -0.71   -0.98
#   5    5.67   -0.96    0.05   -3.26    0.34    0.00    0.00       1.84   -8.40    0.87
#   6   -0.64   -0.83    0.11    0.68   -0.15    0.00    0.00      -0.82    1.59   -0.35
#   7   -1.25   -1.31    0.16    3.23   -0.13    0.00    0.00       0.70    7.52   -0.31
#   8    0.76   -2.21    0.75   -4.04    0.16    0.00    0.00      -4.58   -8.52    0.33
#   9    0.00   -1.48    0.41   -2.81   -0.17    0.00    0.00      -4.04   -6.86   -0.41
#  10   -0.78   -1.48    0.27    3.52   -0.85    0.00    0.00       0.68    8.49   -2.05
#  11    2.93   -1.51    0.31   -4.77    0.31    0.00    0.00      -2.73  -13.42    0.87
#  12    0.45   -2.00    0.50   -3.27    0.81    0.00    0.00      -3.52   -6.85    1.69
#  13   -0.17   -1.88    0.99    0.30   -0.24    0.00    0.00      -1.00    0.65   -0.53
#  14    1.42   -2.38    0.62    3.41   -1.14    0.00    0.00       1.93    6.09   -2.04
#  15   -2.87   -4.98    3.81   -1.78    0.22    0.00    0.00      -5.60   -2.93    0.36
#  16   -1.84   -1.87    0.54   -3.16    1.19    0.00    0.00      -5.14   -5.39    2.03
#  17    0.25   -1.54    0.29    0.43   -0.33    0.00    0.00      -0.90    0.68   -0.53
#  18    2.17   -1.80    0.93    3.23   -0.32    0.00    0.00       4.22    6.62   -0.65
#  19   -4.02   -1.52    0.25   -2.94    0.17    0.00    0.00      -8.07   -5.96    0.34
#  20   -3.97   -1.30    0.21    2.48   -1.12    0.00    0.00      -3.70    6.77   -3.06
#  21   -0.50   -0.09    0.00    0.22   -0.02    0.00    0.00      -0.39    2.51   -0.28
#  22   -0.84   -0.36    0.18    0.62   -0.06    0.00    0.00      -0.46    2.87   -0.28
#  23   -0.18   -0.34    0.11    0.78   -0.06    0.00    0.00       0.30    3.45   -0.28
#  24   -3.82   -0.34    0.24    1.13   -0.05    0.00    0.00      -2.84    6.12   -0.28
#  25   -4.97   -0.62    0.41    1.94   -0.10    0.00    0.00      -3.35    5.32   -0.28
#  26   -2.07   -0.26    0.02    1.18   -0.08    0.00    0.00      -1.20    3.57   -0.24
#  27   -1.75   -0.53    0.44    1.03   -0.08    0.00    0.00      -0.90    3.18   -0.26
#  28   -2.57   -0.02    0.00    1.65    0.08    0.00    0.00      -0.86    7.75    0.37
#  29   -1.49   -0.02    0.00    1.98    0.10    0.00    0.00       0.57    8.82    0.44
#  30   -0.39   -1.02    1.22    0.81   -0.13    0.00    0.00       0.50    1.73   -0.28
#  31   -0.65   -0.40    0.19    0.30   -0.08    0.00    0.00      -0.64    0.95   -0.25
#  32    0.05   -1.04    1.49    1.30   -0.09    0.00    0.00       1.70    3.05   -0.22
#  33    0.56   -0.48    0.19    0.27   -0.11    0.00    0.00       0.43    0.57   -0.23
#  34    0.21   -0.64    0.16    0.62   -0.18    0.00    0.00       0.18    0.99   -0.28
#  35    0.16   -0.59    0.21    0.55   -0.16    0.00    0.00       0.17    0.97   -0.28
#  36   -3.15   -0.56    0.28    2.92   -0.10    0.00    0.00      -0.61    8.53   -0.28
@<TRIPOS>MOLECULE
E11684417
   36    37     0     0     0
SMALL
USER_CHARGES


@<TRIPOS>ATOM
      1 C1         25.3315   21.5449   61.9062 C.3       1             0.0571
      2 N1         24.6348   20.3948   61.3247 N.pl3     1            -0.4111
      3 C2         24.9701   19.7410   60.1698 C.2       1             0.0245
      4 C3         24.0716   18.7511   60.0075 C.2       1             0.0045
      5 N2         23.2111   18.7992   61.0354 N.pl3     1            -0.3654
      6 C4         22.0782   17.8923   61.2359 C.3       1             0.0583
      7 C5         22.0413   17.4452   62.6747 C.2       1             0.4300
      8 O1         21.9215   18.2653   63.5626 O.2       1            -0.5036
      9 C6         22.1460   16.0737   62.9902 C.2       1            -0.4668
     10 C7         23.3971   15.4761   63.2219 C.2       1             0.5773
     11 N3         24.5392   16.2116   63.1462 N.pl3     1            -0.7838
     12 N4         23.4474   14.1453   63.5246 N.am      1            -0.5405
     13 C8         24.7465   13.5132   63.7683 C.3       1             0.0577
     14 C9         22.3307   13.4050   63.6037 C.2       1             0.7091
     15 O2         22.4290   12.2246   63.8764 O.2       1            -0.5051
     16 N5         21.1087   13.9206   63.3932 N.am      1            -0.5557
     17 C10        19.9312   13.0551   63.4967 C.3       1             0.0752
     18 C11        20.9510   15.2263   63.0932 C.2       1             0.5863
     19 O3         19.8416   15.6916   62.9077 O.2       1            -0.5154
     20 C12        23.5452   19.7782   61.8309 C.cat     1             0.2823
     21 H1         26.1741   21.8185   61.2713 H         1             0.1087
     22 H2         24.6436   22.3872   61.9800 H         1             0.1164
     23 H3         25.6951   21.2848   62.9004 H         1             0.1132
     24 H4         25.7962   19.9745   59.5145 H         1             0.2219
     25 H5         24.0480   18.0427   59.1927 H         1             0.2171
     26 H6         21.1506   18.4104   60.9927 H         1             0.1609
     27 H7         22.1896   17.0230   60.5880 H         1             0.1584
     28 H8         24.4942   17.1563   62.9309 H         1             0.4410
     29 H9         25.3984   15.7914   63.3076 H         1             0.4139
     30 H10        24.6000   12.4569   63.9938 H         1             0.0945
     31 H11        25.3708   13.6119   62.8802 H         1             0.1169
     32 H12        25.2350   14.0005   64.6119 H         1             0.0910
     33 H13        19.0326   13.6386   63.2960 H         1             0.1058
     34 H14        20.0095   12.2468   62.7696 H         1             0.0863
     35 H15        19.8754   12.6361   64.5014 H         1             0.0865
     36 H16        23.0336   20.0516   62.7420 H         1             0.2528
@<TRIPOS>BOND
     1    1    2 1 
     2    1   21 1 
     3    1   22 1 
     4    1   23 1 
     5    2   20 1 
     6    2    3 1 
     7    3    4 2 
     8    3   24 1 
     9    4    5 1 
    10    4   25 1 
    11    5    6 1 
    12    5   20 2 
    13    6    7 1 
    14    6   26 1 
    15    6   27 1 
    16    7    8 2 
    17    7    9 1 
    18    9   18 1 
    19    9   10 2 
    20   10   11 1 
    21   10   12 1 
    22   11   28 1 
    23   11   29 1 
    24   12   13 1 
    25   12   14 am
    26   13   30 1 
    27   13   31 1 
    28   13   32 1 
    29   14   15 2 
    30   14   16 am
    31   16   17 1 
    32   16   18 am
    33   17   33 1 
    34   17   34 1 
    35   17   35 1 
    36   18   19 2 
    37   20   36 1 
##########                 Name:            E31347317
##########          Protonation:                   52
##########               SMILES:   c1cc(ccc1CN2CC[NH+](CC2)CCO)C(F)(F)F
##########            Long Name:   2-[4-[[4-(trifluoromethyl)phenyl]methyl]piperazin-1-ium-1-yl]ethanol
##########          FlexRecCode: 1
##########               Number:                  506
##########   Ligand Source File: /raidb/db2/rgc/leads-emolecules-300/leads-emolecules-3-bh-0000009.db2.gz
##########           GlobalRank: 4834
##########                 Rank:                    1
##########               Setnum:                    9
##########             Matchnum:                 3890
##########                Cloud:                    1
##########        Electrostatic:           -23.975985
##########        Van der Waals:           -18.221836
##########  Ligand Polar Desolv:             4.256630
########## Ligand Apolar Desolv:            -1.791395
##########      Internal Energy:             0.000000
##########      Receptor Energy: 0.0
########## Receptor Desolvation:             0.000000
########## Receptor Hydrophobic:             0.000000
##########         Total Energy: -39.73
##########        Ligand Charge:             1.000000
##########            Arbitrary:    +999.9990
##########     heavy atom count:   20
##########           pose count:    1
##########        Ligand Energy:             0.000000
# num electro vdwattr vdwrepu polsolv apolsol rdesolv rhydroe totalscore fullpol fullapo
#   1    6.56   -2.24    2.15   -4.84    0.57    0.00    0.00       2.20  -14.35    1.68
#   2   -0.79   -0.97    0.21    0.30   -0.04    0.00    0.00      -1.30    0.95   -0.14
#   3    0.18   -0.62    0.07   -0.03   -0.09    0.00    0.00      -0.49   -0.10   -0.33
#   4    6.06   -0.76    0.12   -3.11    0.12    0.00    0.00       2.43  -10.83    0.43
#   5  -10.03   -0.03    0.00    2.91    0.11    0.00    0.00      -7.04   14.20    0.52
#   6    0.04   -0.66    0.05    0.16   -0.16    0.00    0.00      -0.57    0.44   -0.42
#   7   -0.37   -0.84    0.14    0.16   -0.14    0.00    0.00      -1.06    0.44   -0.39
#   8    4.93   -0.90    0.09   -4.00    0.98    0.00    0.00       1.10  -13.11    3.21
#   9   -0.56   -0.75    0.10    0.67   -0.13    0.00    0.00      -0.68    2.01   -0.39
#  10    0.16   -1.29    0.21   -0.19   -0.13    0.00    0.00      -1.25   -0.50   -0.34
#  11   -0.03   -1.45    0.34   -0.58   -0.19    0.00    0.00      -1.91   -1.40   -0.45
#  12   -0.26   -1.68    0.61   -0.50   -0.21    0.00    0.00      -2.05   -1.06   -0.44
#  13   -0.50   -1.87    0.65   -1.04   -0.22    0.00    0.00      -2.98   -1.81   -0.38
#  14   -0.02   -2.19    0.64   -0.57   -0.23    0.00    0.00      -2.37   -1.10   -0.44
#  15    0.24   -1.60    0.32   -0.68   -0.16    0.00    0.00      -1.88   -1.55   -0.37
#  16    1.73   -1.50    0.24    1.40   -0.04    0.00    0.00       1.83    2.21   -0.07
#  17   -0.88   -1.28    0.44   -0.45   -0.29    0.00    0.00      -2.46   -0.75   -0.48
#  18   -0.50   -2.21    0.81   -0.51   -0.30    0.00    0.00      -2.72   -0.76   -0.45
#  19   -0.60   -2.85    4.77   -0.42   -0.29    0.00    0.00       0.61   -0.64   -0.45
#  20   -0.15   -0.43    0.02    0.03   -0.09    0.00    0.00      -0.62    0.12   -0.37
#  21    0.06   -0.42    0.03    0.06   -0.09    0.00    0.00      -0.36    0.27   -0.41
#  22  -11.25   -0.23    0.19    3.33    0.42    0.00    0.00      -7.54    9.82    1.24
#  23   -0.89   -0.21    0.02    0.54   -0.05    0.00    0.00      -0.57    2.65   -0.23
#  24   -2.50   -0.57    0.34    0.58   -0.10    0.00    0.00      -2.26    1.64   -0.28
#  25   -0.83   -0.10    0.00    0.47   -0.02    0.00    0.00      -0.47    4.65   -0.15
#  26   -1.60   -0.43    0.25    1.06   -0.07    0.00    0.00      -0.79    4.38   -0.28
#  27   -1.71   -0.22    0.02    1.17   -0.06    0.00    0.00      -0.81    5.35   -0.28
#  28   -3.23   -0.26    0.03    1.22   -0.08    0.00    0.00      -2.32    4.11   -0.28
#  29   -0.77   -0.28    0.06    0.66   -0.06    0.00    0.00      -0.38    2.39   -0.21
#  30   -2.72   -0.50    0.21    0.95   -0.10    0.00    0.00      -2.16    2.61   -0.28
#  31   -0.37   -0.37    0.18    0.39   -0.06    0.00    0.00      -0.23    1.81   -0.28
#  32   -0.68   -0.26    0.03    0.52   -0.07    0.00    0.00      -0.45    2.00   -0.27
#  33   -0.10   -0.25    0.03    0.69   -0.08    0.00    0.00       0.29    2.51   -0.28
#  34    1.17   -0.28    0.03    0.32   -0.09    0.00    0.00       1.15    0.97   -0.27
#  35    0.03   -0.74    0.39    0.73   -0.13    0.00    0.00       0.28    1.49   -0.27
#  36   -0.43   -0.26    0.03    1.09   -0.08    0.00    0.00       0.34    3.76   -0.28
#  37   -0.33   -0.10    0.00    0.24   -0.02    0.00    0.00      -0.20    2.60   -0.22
#  38   -1.22   -0.18    0.02    0.38   -0.04    0.00    0.00      -1.05    1.86   -0.21
#  39   -0.80   -0.08    0.00    0.31   -0.02    0.00    0.00      -0.59    3.84   -0.28
#  40   -1.00   -0.26    0.08    0.82   -0.04    0.00    0.00      -0.40    4.68   -0.23
@<TRIPOS>MOLECULE
E31347317
   40    41     0     0     0
SMALL
USER_CHARGES


@<TRIPOS>ATOM
      1 O1         24.7602   22.1886   58.8637 O.3       1            -0.5797
      2 C1         24.1176   22.2892   60.1360 C.3       1             0.0471
      3 C2         24.8392   21.3925   61.1442 C.3       1            -0.0153
      4 N1         24.7930   19.9992   60.6810 N.4       1            -0.3817
      5 H1         24.9350   19.9722   59.6824 H         1             0.4360
      6 C3         23.4828   19.4194   61.0046 C.3       1            -0.0024
      7 C4         23.4285   17.9726   60.5092 C.3       1             0.0244
      8 N2         24.4975   17.1985   61.1552 N.3       1            -0.5322
      9 C5         24.2813   17.1107   62.6055 C.3       1             0.0931
     10 C6         23.2609   16.0408   62.8975 C.ar      1            -0.0644
     11 C7         21.9171   16.3616   62.9445 C.ar      1            -0.0941
     12 C8         20.9813   15.3801   63.2122 C.ar      1            -0.0656
     13 C9         21.3890   14.0779   63.4327 C.ar      1            -0.1702
     14 C10        22.7328   13.7569   63.3849 C.ar      1            -0.0676
     15 C11        23.6683   14.7375   63.1128 C.ar      1            -0.1201
     16 C12        20.3688   13.0080   63.7256 C.3       1             0.5052
     17 F1         19.0883   13.5712   63.7213 F         1            -0.1743
     18 F2         20.4435   12.0118   62.7463 F         1            -0.1741
     19 F3         20.6279   12.4480   64.9813 F         1            -0.1731
     20 C13        25.8133   17.7792   60.8532 C.3       1             0.0177
     21 C14        25.8509   19.2272   61.3463 C.3       1            -0.0069
     22 H2         24.7671   21.2941   58.4962 H         1             0.4103
     23 H3         24.1517   23.3230   60.4796 H         1             0.0712
     24 H4         23.0791   21.9707   60.0448 H         1             0.0943
     25 H5         25.8776   21.7108   61.2355 H         1             0.1384
     26 H6         24.3490   21.4691   62.1146 H         1             0.1395
     27 H7         23.3332   19.4396   62.0841 H         1             0.1376
     28 H8         22.6987   19.9996   60.5183 H         1             0.1409
     29 H9         22.4612   17.5377   60.7608 H         1             0.0621
     30 H10        23.5669   17.9527   59.4282 H         1             0.1259
     31 H11        25.2208   16.8611   63.0986 H         1             0.0605
     32 H12        23.9192   18.0693   62.9775 H         1             0.1032
     33 H13        21.5985   17.3791   62.7722 H         1             0.1384
     34 H14        19.9314   15.6309   63.2496 H         1             0.1417
     35 H15        23.0515   12.7395   63.5574 H         1             0.1402
     36 H16        24.7179   14.4861   63.0717 H         1             0.1309
     37 H17        26.5896   17.2029   61.3563 H         1             0.0616
     38 H18        25.9827   17.7567   59.7767 H         1             0.1260
     39 H19        26.8216   19.6651   61.1134 H         1             0.1413
     40 H20        25.6925   19.2482   62.4247 H         1             0.1346
@<TRIPOS>BOND
     1    1    2 1 
     2    1   22 1 
     3    2    3 1 
     4    2   23 1 
     5    2   24 1 
     6    3    4 1 
     7    3   25 1 
     8    3   26 1 
     9    4    5 1 
    10    4   21 1 
    11    4    6 1 
    12    6    7 1 
    13    6   27 1 
    14    6   28 1 
    15    7    8 1 
    16    7   29 1 
    17    7   30 1 
    18    8    9 1 
    19    8   20 1 
    20    9   10 1 
    21    9   31 1 
    22    9   32 1 
    23   10   15 ar
    24   10   11 ar
    25   11   12 ar
    26   11   33 1 
    27   12   13 ar
    28   12   34 1 
    29   13   14 ar
    30   13   16 1 
    31   14   15 ar
    32   14   35 1 
    33   15   36 1 
    34   16   17 1 
    35   16   18 1 
    36   16   19 1 
    37   20   21 1 
    38   20   37 1 
    39   20   38 1 
    40   21   39 1 
    41   21   40 1 
##########                 Name:            E29911746
##########          Protonation:                   87
##########               SMILES:   c1c(c(ncn1)N)c2nc(on2)[C@H]3CCC[NH+]3CC4CC4
##########            Long Name:   lopropylmethyl)pyrrolidin-1-ium-2-yl]-1,2,4-oxadiazol-3-yl]pyrimidin-4-amine
##########          FlexRecCode: 1
##########               Number:                  535
##########   Ligand Source File: /raidb/db2/rgc/leads-emolecules-300/leads-emolecules-2b-0000125.db2.gz
##########           GlobalRank: 4862
##########                 Rank:                    1
##########               Setnum:                   42
##########             Matchnum:                 7099
##########                Cloud:                    1
##########        Electrostatic:           -19.802439
##########        Van der Waals:           -23.169193
##########  Ligand Polar Desolv:             5.879659
########## Ligand Apolar Desolv:            -2.629969
##########      Internal Energy:             0.000000
##########      Receptor Energy: 0.0
########## Receptor Desolvation:             0.000000
########## Receptor Hydrophobic:             0.000000
##########         Total Energy: -39.72
##########        Ligand Charge:             1.000000
##########            Arbitrary:    +999.9990
##########     heavy atom count:   21
##########           pose count:    1
##########        Ligand Energy:             0.000000
# num electro vdwattr vdwrepu polsolv apolsol rdesolv rhydroe totalscore fullpol fullapo
#   1    1.07   -2.90    1.45   -3.35    0.45    0.00    0.00      -3.27   -6.69    0.90
#   2    0.85   -2.24    0.59    1.66   -1.16    0.00    0.00      -0.31    3.05   -2.14
#   3   -2.88   -3.51    1.31   -2.31    1.32    0.00    0.00      -6.07   -3.65    2.08
#   4    1.15   -2.77    0.59    1.61   -2.07    0.00    0.00      -1.49    2.46   -3.17
#   5   -2.65   -1.89    0.30   -2.91    1.27    0.00    0.00      -5.88   -4.79    2.09
#   6    1.42   -1.59    0.29    1.49   -0.53    0.00    0.00       1.08    2.72   -0.96
#   7   -0.68   -1.70    0.40   -1.16   -0.20    0.00    0.00      -3.34   -2.37   -0.41
#   8    0.32   -1.80    0.43    1.80   -0.94    0.00    0.00      -0.19    4.15   -2.17
#   9   -0.95   -5.41    6.97   -2.44    0.49    0.00    0.00      -1.33   -4.95    1.00
#  10    0.15   -3.98    2.45   -0.66   -0.08    0.00    0.00      -2.12   -1.37   -0.16
#  11   -1.44   -1.58    0.29    2.45   -0.16    0.00    0.00      -0.44    6.27   -0.42
#  12    1.98   -1.12    0.11   -3.60    0.96    0.00    0.00      -1.67   -9.29    2.49
#  13   -1.17   -0.72    0.09    1.33   -0.12    0.00    0.00      -0.59    4.26   -0.37
#  14    1.24   -0.45    0.03   -0.96   -0.07    0.00    0.00      -0.21   -3.80   -0.27
#  15    1.89   -0.63    0.14   -0.92   -0.07    0.00    0.00       0.40   -3.66   -0.29
#  16    0.24   -1.26    0.91   -0.09   -0.14    0.00    0.00      -0.34   -0.26   -0.41
#  17    6.06   -0.83    0.06   -4.06    0.16    0.00    0.00       1.40  -10.83    0.43
#  18   -7.71   -0.02    0.00    4.30    0.14    0.00    0.00      -3.29   17.29    0.56
#  19   -0.15   -0.73    0.05    0.23   -0.12    0.00    0.00      -0.72    0.53   -0.27
#  20    4.59   -1.31    0.29   -1.39   -0.19    0.00    0.00       1.99   -2.66   -0.36
#  21    3.15   -1.75    0.60   -2.29   -0.26    0.00    0.00      -0.55   -3.81   -0.43
#  22    2.42   -1.68    0.42   -2.33   -0.25    0.00    0.00      -1.43   -3.93   -0.43
#  23   -0.44   -0.03    0.00    1.34    0.13    0.00    0.00       0.99    3.82    0.36
#  24   -1.61   -0.07    0.00    1.63    0.27    0.00    0.00       0.23    3.59    0.59
#  25   -0.18   -0.96    0.59    1.52   -0.18    0.00    0.00       0.79    2.34   -0.28
#  26    1.77   -0.30    0.04    1.22   -0.09    0.00    0.00       2.63    3.66   -0.28
#  27   -1.29   -0.37    0.11    2.17   -0.07    0.00    0.00       0.55    8.56   -0.28
#  28   -0.84   -0.13    0.02    0.43   -0.03    0.00    0.00      -0.56    3.58   -0.28
#  29   -1.07   -0.14    0.01    0.26   -0.04    0.00    0.00      -0.99    1.68   -0.26
#  30   -0.98   -0.10    0.00    0.39   -0.03    0.00    0.00      -0.71    4.16   -0.28
#  31   -1.83   -0.31    0.11    0.58   -0.06    0.00    0.00      -1.50    2.70   -0.28
#  32   -3.61   -0.45    0.35    1.73   -0.07    0.00    0.00      -2.05    6.80   -0.27
#  33   -4.34   -0.85    1.40    1.44   -0.09    0.00    0.00      -2.44    4.02   -0.26
#  34   -2.09   -0.26    0.05    0.91   -0.05    0.00    0.00      -1.45    3.38   -0.20
#  35   -0.99   -0.22    0.02    0.59   -0.06    0.00    0.00      -0.66    2.41   -0.23
#  36   -3.97   -0.84    0.93    2.30   -0.11    0.00    0.00      -1.69    5.24   -0.24
#  37   -1.38   -1.15    2.30    0.73   -0.13    0.00    0.00       0.38    1.60   -0.28
#  38   -2.73   -0.76    0.54    0.97   -0.16    0.00    0.00      -2.13    1.71   -0.28
#  39   -2.29   -0.95    0.69    0.77   -0.16    0.00    0.00      -1.94    1.32   -0.28
#  40   -0.84   -0.50    0.19    0.46   -0.13    0.00    0.00      -0.81    1.01   -0.28
@<TRIPOS>MOLECULE
E29911746
   40    43     0     0     0
SMALL
USER_CHARGES


@<TRIPOS>ATOM
      1 N1         23.8251   13.5288   63.8076 N.pl3     1            -0.8118
      2 C1         22.4499   13.6251   63.7043 C.ar      1             0.4845
      3 N2         21.6976   12.5312   63.6423 N.ar      1            -0.5722
      4 C2         20.3868   12.6183   63.5438 C.ar      1             0.3819
      5 N3         19.7621   13.7788   63.5021 N.ar      1            -0.5572
      6 C3         20.4319   14.9190   63.5580 C.ar      1             0.2508
      7 C4         21.8205   14.8831   63.6686 C.ar      1            -0.2462
      8 C5         22.6125   16.1344   63.7406 C.2       1             0.3394
      9 N4         22.9452   16.7667   64.8394 N.2       1            -0.3299
     10 O1         23.6946   17.9038   64.4378 O.3       1            -0.0761
     11 C6         23.7544   17.8644   63.1004 C.2       1             0.2522
     12 N5         23.1144   16.8073   62.6890 N.2       1            -0.5072
     13 C7         24.4500   18.8705   62.2202 C.3       1             0.1222
     14 C8         25.4498   18.1689   61.2771 C.3       1            -0.1325
     15 C9         25.6255   19.2717   60.2191 C.3       1            -0.1363
     16 C10        24.1771   19.7225   60.0110 C.3       1            -0.0101
     17 N6         23.4893   19.5029   61.2916 N.4       1            -0.3803
     18 H1         23.1810   20.3862   61.6691 H         1             0.4370
     19 C11        22.3361   18.6155   61.0901 C.3       1             0.0102
     20 C12        21.3464   19.2760   60.1284 C.3       1            -0.2086
     21 C13        20.2380   20.1375   60.7368 C.3       1            -0.1676
     22 C14        19.9029   18.7686   60.1413 C.3       1            -0.1466
     23 H2         24.3652   14.3330   63.8583 H         1             0.4185
     24 H3         24.2496   12.6570   63.8336 H         1             0.4183
     25 H4         19.8048   11.7098   63.4952 H         1             0.2122
     26 H5         19.9095   15.8635   63.5227 H         1             0.1782
     27 H6         24.9534   19.6250   62.8247 H         1             0.1780
     28 H7         26.3898   17.9530   61.7849 H         1             0.1286
     29 H8         25.0190   17.2670   60.8421 H         1             0.1148
     30 H9         26.2383   20.0878   60.6023 H         1             0.1068
     31 H10        26.0459   18.8674   59.2982 H         1             0.1275
     32 H11        24.1477   20.7795   59.7463 H         1             0.1440
     33 H12        23.7084   19.1279   59.2269 H         1             0.1406
     34 H13        22.6751   17.6689   60.6691 H         1             0.1547
     35 H14        21.8465   18.4331   62.0466 H         1             0.1156
     36 H15        21.7604   19.5909   59.1705 H         1             0.1301
     37 H16        20.2140   20.2337   61.8224 H         1             0.1029
     38 H17        19.9228   21.0195   60.1794 H         1             0.1133
     39 H18        19.3675   18.7499   59.1921 H         1             0.1157
     40 H19        19.6586   17.9641   60.8351 H         1             0.1042
@<TRIPOS>BOND
     1    1    2 1 
     2    1   23 1 
     3    1   24 1 
     4    2    7 ar
     5    2    3 ar
     6    3    4 ar
     7    4    5 ar
     8    4   25 1 
     9    5    6 ar
    10    6    7 ar
    11    6   26 1 
    12    7    8 1 
    13    8   12 1 
    14    8    9 2 
    15    9   10 1 
    16   10   11 1 
    17   11   12 2 
    18   11   13 1 
    19   13   17 1 
    20   13   14 1 
    21   13   27 1 
    22   14   15 1 
    23   14   28 1 
    24   14   29 1 
    25   15   16 1 
    26   15   30 1 
    27   15   31 1 
    28   16   17 1 
    29   16   32 1 
    30   16   33 1 
    31   17   18 1 
    32   17   19 1 
    33   19   20 1 
    34   19   34 1 
    35   19   35 1 
    36   20   22 1 
    37   20   21 1 
    38   20   36 1 
    39   21   22 1 
    40   21   37 1 
    41   21   38 1 
    42   22   39 1 
    43   22   40 1 
##########                 Name:             E4434663
##########          Protonation:                  100
##########               SMILES:   c1ccc(cc1)c2/c(=N/Cn3c4ccccc4nn3)/[nH]on2
##########            Long Name:   N-(benzotriazol-1-ylmethyl)-4-phenyl-1,2,5-oxadiazol-3-imine
##########          FlexRecCode: 1
##########               Number:                  287
##########   Ligand Source File: /raidb/db2/rgc/leads-emolecules-300/leads-emolecules-2e-0000350.db2.gz
##########           GlobalRank: 4862
##########                 Rank:                    1
##########               Setnum:                   56
##########             Matchnum:                 2505
##########                Cloud:                    1
##########        Electrostatic:            -6.944031
##########        Van der Waals:           -36.070358
##########  Ligand Polar Desolv:             6.423822
########## Ligand Apolar Desolv:            -3.129414
##########      Internal Energy:             0.000000
##########      Receptor Energy: 0.0
########## Receptor Desolvation:             0.000000
########## Receptor Hydrophobic:             0.000000
##########         Total Energy: -39.72
##########        Ligand Charge:             0.000000
##########            Arbitrary:    +999.9990
##########     heavy atom count:   22
##########           pose count:    1
##########        Ligand Energy:             0.000000
# num electro vdwattr vdwrepu polsolv apolsol rdesolv rhydroe totalscore fullpol fullapo
#   1    2.47   -1.66    0.34    0.12   -1.06    0.00    0.00       0.21    0.19   -1.70
#   2   -5.08   -2.63    1.47    0.28    1.44    0.00    0.00      -4.53    0.50    2.57
#   3    2.36   -2.00    0.50   -0.51   -1.30    0.00    0.00      -0.95   -0.85   -2.18
#   4   -1.29   -3.35    1.60    0.51    0.46    0.00    0.00      -2.07    0.82    0.74
#   5    0.09   -3.08    0.87   -0.06   -0.40    0.00    0.00      -2.59   -0.09   -0.60
#   6   -0.81   -2.74    0.99    0.83    0.73    0.00    0.00      -1.00    1.33    1.17
#   7    0.73   -1.76    0.38   -0.38   -0.46    0.00    0.00      -1.50   -0.66   -0.79
#   8   -0.13   -1.64    0.38    0.09   -0.19    0.00    0.00      -1.48    0.19   -0.41
#   9    0.07   -1.59    0.33    0.02   -0.20    0.00    0.00      -1.38    0.05   -0.46
#  10    0.40   -1.51    0.32   -0.08   -0.17    0.00    0.00      -1.04   -0.22   -0.47
#  11    0.37   -1.72    0.38   -0.08   -0.19    0.00    0.00      -1.24   -0.20   -0.47
#  12    0.16   -1.91    0.47   -0.08   -0.21    0.00    0.00      -1.58   -0.17   -0.47
#  13   -0.26   -1.96    0.67    0.05   -0.20    0.00    0.00      -1.71    0.10   -0.45
#  14   -4.90   -2.26    0.50    0.81    0.77    0.00    0.00      -5.08    1.26    1.20
#  15   -0.21   -2.54    0.58    0.32    0.31    0.00    0.00      -1.54    0.54    0.53
#  16   -2.60   -3.82    1.66    1.39    0.75    0.00    0.00      -2.62    2.30    1.24
#  17   -0.26   -3.05    1.73    0.21   -0.48    0.00    0.00      -1.84    0.36   -0.80
#  18   -0.35   -2.72    1.04    0.06   -0.29    0.00    0.00      -2.27    0.10   -0.47
#  19   -1.27   -2.16    0.48   -0.22   -0.31    0.00    0.00      -3.48   -0.34   -0.47
#  20   -0.54   -3.06    1.18   -0.14   -0.31    0.00    0.00      -2.87   -0.22   -0.47
#  21   -0.85   -3.09    0.98   -0.17   -0.30    0.00    0.00      -3.42   -0.26   -0.47
#  22    1.17   -2.76    1.38   -0.13   -0.48    0.00    0.00      -0.83   -0.20   -0.75
#  23    0.24   -0.73    0.36    0.42   -0.16    0.00    0.00       0.14    0.76   -0.28
#  24    0.65   -0.67    0.18    0.13   -0.13    0.00    0.00       0.15    0.22   -0.22
#  25    0.34   -0.09    0.01    0.42    0.28    0.00    0.00       0.96    0.75    0.50
#  26   -0.40   -0.34    0.06   -0.04   -0.07    0.00    0.00      -0.79   -0.12   -0.20
#  27   -0.55   -0.24    0.03    0.15   -0.06    0.00    0.00      -0.66    0.71   -0.28
#  28   -0.92   -0.43    0.18    0.27   -0.08    0.00    0.00      -0.98    0.93   -0.28
#  29   -0.38   -0.50    0.16    0.26   -0.12    0.00    0.00      -0.58    0.61   -0.28
#  30    1.38   -0.49    0.23   -0.06   -0.09    0.00    0.00       0.97   -0.16   -0.27
#  31    1.08   -0.79    0.37   -0.04   -0.15    0.00    0.00       0.47   -0.08   -0.28
#  32    1.13   -0.41    0.08    0.55   -0.13    0.00    0.00       1.22    1.18   -0.28
#  33    1.05   -1.37    3.68    0.99   -0.17    0.00    0.00       4.19    1.66   -0.28
#  34    0.20   -0.77    0.22    0.53   -0.17    0.00    0.00       0.01    0.88   -0.28
@<TRIPOS>MOLECULE
E4434663
   34    37     0     0     0
SMALL
USER_CHARGES


@<TRIPOS>ATOM
      1 C1         18.1395   14.8438   65.9390 C.3       1             0.3033
      2 N1         19.3853   15.0327   65.1915 N.2       1            -0.5622
      3 C2         19.8585   14.0611   64.4506 C.2       1             0.4142
      4 N2         19.2979   12.8261   64.2759 N.pl3     1            -0.6060
      5 O1         20.1476   12.1080   63.3980 O.3       1             0.0468
      6 N3         21.2329   12.9457   63.0508 N.2       1            -0.2507
      7 C3         21.0937   14.0962   63.6428 C.2       1             0.1951
      8 C4         22.0210   15.2470   63.5282 C.ar      1            -0.0614
      9 C5         23.3785   15.0312   63.2939 C.ar      1            -0.0659
     10 C6         24.2370   16.1063   63.1882 C.ar      1            -0.1275
     11 C7         23.7532   17.3963   63.3142 C.ar      1            -0.0860
     12 C8         22.4074   17.6165   63.5468 C.ar      1            -0.1281
     13 C9         21.5383   16.5494   63.6486 C.ar      1            -0.0724
     14 N4         17.0046   15.2536   65.1082 N.pl3     1            -0.3948
     15 N5         17.0596   15.7474   63.7964 N.2       1            -0.0139
     16 N6         15.8678   16.0027   63.3849 N.2       1            -0.2124
     17 C10        14.9686   15.7121   64.3460 C.ar      1            -0.0211
     18 C11        13.5717   15.8039   64.4111 C.ar      1            -0.0347
     19 C12        12.9198   15.4265   65.5484 C.ar      1            -0.1341
     20 C13        13.6249   14.9512   66.6468 C.ar      1            -0.0647
     21 C14        14.9874   14.8520   66.6084 C.ar      1            -0.1187
     22 C15        15.6757   15.2242   65.4586 C.ar      1             0.1016
     23 H1         18.0327   13.7927   66.2073 H         1             0.1271
     24 H2         18.1641   15.4494   66.8449 H         1             0.0701
     25 H3         18.4756   12.5031   64.6766 H         1             0.4626
     26 H4         23.7573   14.0246   63.1958 H         1             0.1574
     27 H5         25.2886   15.9405   63.0072 H         1             0.1325
     28 H6         24.4289   18.2347   63.2311 H         1             0.1300
     29 H7         22.0355   18.6258   63.6445 H         1             0.1327
     30 H8         20.4871   16.7227   63.8253 H         1             0.1326
     31 H9         13.0131   16.1726   63.5636 H         1             0.1385
     32 H10        11.8432   15.4985   65.5955 H         1             0.1379
     33 H11        13.0917   14.6577   67.5390 H         1             0.1387
     34 H12        15.5278   14.4813   67.4671 H         1             0.1332
@<TRIPOS>BOND
     1    1    2 1 
     2    1   14 1 
     3    1   23 1 
     4    1   24 1 
     5    2    3 2 
     6    3    7 1 
     7    3    4 1 
     8    4    5 1 
     9    4   25 1 
    10    5    6 1 
    11    6    7 2 
    12    7    8 1 
    13    8   13 ar
    14    8    9 ar
    15    9   10 ar
    16    9   26 1 
    17   10   11 ar
    18   10   27 1 
    19   11   12 ar
    20   11   28 1 
    21   12   13 ar
    22   12   29 1 
    23   13   30 1 
    24   14   22 1 
    25   14   15 1 
    26   15   16 2 
    27   16   17 1 
    28   17   22 ar
    29   17   18 ar
    30   18   19 ar
    31   18   31 1 
    32   19   20 ar
    33   19   32 1 
    34   20   21 ar
    35   20   33 1 
    36   21   22 ar
    37   21   34 1 
##########                 Name:            E45567826
##########          Protonation:                  100
##########               SMILES:   Cc1ccccc1c2nc(on2)/C(=C\c3cccs3)/C#N
##########            Long Name:   (Z)-2-[3-(o-tolyl)-1,2,4-oxadiazol-5-yl]-3-(2-thienyl)prop-2-enenitrile
##########          FlexRecCode: 1
##########               Number:                  323
##########   Ligand Source File: /raidb/db2/rgc/leads-emolecules-300/leads-emolecules-2f-0000237.db2.gz
##########           GlobalRank: 4862
##########                 Rank:                    1
##########               Setnum:                   41
##########             Matchnum:                 5988
##########                Cloud:                    1
##########        Electrostatic:            -9.414136
##########        Van der Waals:           -31.899689
##########  Ligand Polar Desolv:             5.676011
########## Ligand Apolar Desolv:            -4.085503
##########      Internal Energy:             0.000000
##########      Receptor Energy: 0.0
########## Receptor Desolvation:             0.000000
########## Receptor Hydrophobic:             0.000000
##########         Total Energy: -39.72
##########        Ligand Charge:             0.000000
##########            Arbitrary:    +999.9990
##########     heavy atom count:   21
##########           pose count:    1
##########        Ligand Energy:             0.000000
# num electro vdwattr vdwrepu polsolv apolsol rdesolv rhydroe totalscore fullpol fullapo
#   1   -0.41   -2.59    0.84    0.16   -0.13    0.00    0.00      -2.12    0.24   -0.19
#   2   -0.25   -2.82    0.75    0.10   -0.27    0.00    0.00      -2.50    0.15   -0.41
#   3   -0.71   -3.36    1.04   -0.03   -0.29    0.00    0.00      -3.35   -0.05   -0.45
#   4   -0.84   -2.60    0.86   -0.10   -0.31    0.00    0.00      -2.98   -0.15   -0.47
#   5   -1.45   -2.64    1.53   -0.06   -0.29    0.00    0.00      -2.91   -0.09   -0.47
#   6   -0.98   -3.06    1.57    0.11   -0.27    0.00    0.00      -2.62    0.19   -0.45
#   7   -0.52   -2.52    0.91    0.20   -0.26    0.00    0.00      -2.20    0.31   -0.41
#   8    4.06   -2.03    0.38   -1.04   -0.99    0.00    0.00       0.38   -1.74   -1.66
#   9   -5.82   -3.08    2.30    1.44    0.73    0.00    0.00      -4.42    2.55    1.30
#  10   -0.87   -1.64    0.39    0.32   -0.04    0.00    0.00      -1.84    0.65   -0.09
#  11    2.42   -1.58    0.22   -0.76   -0.23    0.00    0.00       0.07   -1.41   -0.42
#  12   -4.15   -1.83    0.28    1.45    1.63    0.00    0.00      -2.63    2.49    2.80
#  13   -0.18   -1.71    0.36    0.03   -0.23    0.00    0.00      -1.72    0.06   -0.41
#  14    0.11   -1.62    0.42    0.33   -0.20    0.00    0.00      -0.96    0.74   -0.45
#  15    0.18   -1.36    0.24   -0.26   -0.13    0.00    0.00      -1.34   -0.63   -0.30
#  16    0.02   -2.34    0.96   -0.07   -0.23    0.00    0.00      -1.66   -0.16   -0.49
#  17    1.16   -2.22    0.59   -0.32   -0.21    0.00    0.00      -1.00   -0.70   -0.46
#  18    2.56   -1.31    0.15   -0.14   -0.11    0.00    0.00       1.14   -0.31   -0.25
#  19   -1.72   -2.97    2.37   -0.06   -0.26    0.00    0.00      -2.65   -0.15   -0.63
#  20    1.07   -2.57    0.63   -0.55   -0.92    0.00    0.00      -2.34   -0.88   -1.48
#  21   -2.77   -6.31    6.34    1.87    0.47    0.00    0.00      -0.40    2.84    0.71
#  22   -0.15   -1.38    0.89   -0.13   -0.19    0.00    0.00      -0.94   -0.19   -0.28
#  23    0.09   -0.89    0.71    0.01   -0.16    0.00    0.00      -0.25    0.02   -0.28
#  24    0.50   -0.80    0.30   -0.10   -0.14    0.00    0.00      -0.23   -0.16   -0.23
#  25   -0.03   -1.11    0.85    0.32   -0.18    0.00    0.00      -0.15    0.50   -0.28
#  26    1.13   -0.54    0.16    0.45   -0.15    0.00    0.00       1.06    0.86   -0.28
#  27    1.28   -0.46    0.09    0.28   -0.13    0.00    0.00       1.07    0.61   -0.28
#  28    1.27   -0.81    0.41   -0.14   -0.16    0.00    0.00       0.57   -0.25   -0.28
#  29   -0.12   -0.29    0.04    0.73   -0.09    0.00    0.00       0.27    2.36   -0.28
#  30    0.40   -1.18    1.70    0.94   -0.14    0.00    0.00       1.72    1.90   -0.28
#  31   -1.12   -0.99    0.65    0.46   -0.13    0.00    0.00      -1.13    0.95   -0.28
#  32   -3.57   -0.26    0.02    0.24   -0.09    0.00    0.00      -3.66    0.76   -0.28
@<TRIPOS>MOLECULE
E45567826
   32    34     0     0     0
SMALL
USER_CHARGES


@<TRIPOS>ATOM
      1 C1         17.7393   14.4770   66.9766 C.3       1            -0.1154
      2 C2         16.4857   14.8685   66.2376 C.ar      1            -0.0337
      3 C3         15.2574   14.7728   66.8605 C.ar      1            -0.1231
      4 C4         14.1062   15.1318   66.1834 C.ar      1            -0.0893
      5 C5         14.1784   15.5884   64.8795 C.ar      1            -0.1276
      6 C6         15.4011   15.6884   64.2476 C.ar      1            -0.0745
      7 C7         16.5646   15.3330   64.9268 C.ar      1            -0.0400
      8 C8         17.8833   15.4439   64.2540 C.2       1             0.3004
      9 N1         18.1967   16.3204   63.3304 N.2       1            -0.3171
     10 O1         19.5466   16.0693   62.9705 O.3       1            -0.0799
     11 C9         19.9533   15.0322   63.7262 C.2       1             0.3318
     12 N2         18.9499   14.6677   64.4961 N.2       1            -0.4902
     13 C10        21.2887   14.4169   63.6998 C.2       1            -0.0498
     14 C11        22.3963   15.1814   63.3789 C.2       1             0.1190
     15 C12        22.2337   16.5175   62.9630 C.2       1            -0.2362
     16 C13        22.2096   17.6805   63.7312 C.2       1            -0.0655
     17 C14        22.0334   18.8488   63.0333 C.2       1            -0.1880
     18 C15        21.8983   18.7984   61.6832 C.2       1            -0.2141
     19 S1         22.0128   17.1632   61.3159 S.3       1             0.2163
     20 C16        21.4427   13.0268   64.0067 C.1       1             0.2601
     21 N3         21.5647   11.9238   64.2501 N.1       1            -0.3879
     22 H1         17.4794   14.1412   67.9804 H         1             0.0864
     23 H2         18.2393   13.6698   66.4414 H         1             0.0701
     24 H3         18.4059   15.3369   67.0423 H         1             0.0611
     25 H4         15.1954   14.4166   67.8781 H         1             0.1331
     26 H5         13.1472   15.0550   66.6742 H         1             0.1308
     27 H6         13.2762   15.8667   64.3551 H         1             0.1324
     28 H7         15.4565   16.0450   63.2296 H         1             0.1285
     29 H8         23.3858   14.7536   63.4471 H         1             0.1753
     30 H9         22.3218   17.6632   64.8052 H         1             0.1549
     31 H10        22.0023   19.7960   63.5512 H         1             0.1418
     32 H11        21.7544   19.6226   61.0002 H         1             0.1901
@<TRIPOS>BOND
     1    1    2 1 
     2    1   22 1 
     3    1   23 1 
     4    1   24 1 
     5    2    7 ar
     6    2    3 ar
     7    3    4 ar
     8    3   25 1 
     9    4    5 ar
    10    4   26 1 
    11    5    6 ar
    12    5   27 1 
    13    6    7 ar
    14    6   28 1 
    15    7    8 1 
    16    8   12 1 
    17    8    9 2 
    18    9   10 1 
    19   10   11 1 
    20   11   12 2 
    21   11   13 1 
    22   13   14 2 
    23   13   20 1 
    24   14   15 1 
    25   14   29 1 
    26   15   19 1 
    27   15   16 2 
    28   16   17 1 
    29   16   30 1 
    30   17   18 2 
    31   17   31 1 
    32   18   19 1 
    33   18   32 1 
    34   20   21 3 
##########                 Name:             E2231491
##########          Protonation:                  100
##########               SMILES:   Cc1ccc(cc1C)c2c(cn(n2)c3ccccc3)C(=O)N
##########            Long Name:   3-(3,4-dimethylphenyl)-1-phenyl-pyrazole-4-carboxamide
##########          FlexRecCode: 1
##########               Number:                  198
##########   Ligand Source File: /raidb/db2/rgc/leads-emolecules-300/leads-emolecules-2e-0000140.db2.gz
##########           GlobalRank: 4879
##########                 Rank:                    1
##########               Setnum:                   34
##########             Matchnum:                 3388
##########                Cloud:                    1
##########        Electrostatic:            -9.749982
##########        Van der Waals:           -33.591717
##########  Ligand Polar Desolv:             7.297274
########## Ligand Apolar Desolv:            -3.668203
##########      Internal Energy:             0.000000
##########      Receptor Energy: 0.0
########## Receptor Desolvation:             0.000000
########## Receptor Hydrophobic:             0.000000
##########         Total Energy: -39.71
##########        Ligand Charge:             0.000000
##########            Arbitrary:    +999.9990
##########     heavy atom count:   22
##########           pose count:    1
##########        Ligand Energy:             0.000000
# num electro vdwattr vdwrepu polsolv apolsol rdesolv rhydroe totalscore fullpol fullapo
#   1    1.79   -0.56    0.05    0.03   -0.05    0.00    0.00       1.26    0.09   -0.18
#   2    0.80   -0.87    0.04    0.14   -0.15    0.00    0.00      -0.05    0.38   -0.41
#   3    0.84   -1.28    0.17    0.32   -0.17    0.00    0.00      -0.12    0.87   -0.45
#   4    0.09   -1.55    0.23    0.25   -0.15    0.00    0.00      -1.13    0.59   -0.35
#   5    0.00   -1.44    0.28    0.24   -0.17    0.00    0.00      -1.09    0.56   -0.40
#   6    0.48   -1.64    0.56    0.34   -0.19    0.00    0.00      -0.46    0.78   -0.44
#   7    1.40   -1.22    0.14    0.25   -0.17    0.00    0.00       0.40    0.58   -0.40
#   8    2.81   -1.61    0.51    0.09   -0.09    0.00    0.00       1.70    0.18   -0.18
#   9    1.20   -1.70    0.38   -0.53   -0.36    0.00    0.00      -1.01   -1.15   -0.77
#  10   -4.23   -2.45    1.15    1.25    0.57    0.00    0.00      -3.71    2.44    1.10
#  11   -3.27   -1.77    0.24    0.58    0.41    0.00    0.00      -3.82    1.00    0.72
#  12    0.61   -1.96    0.44    0.02   -0.52    0.00    0.00      -1.41    0.04   -0.88
#  13   -1.29   -1.67    0.30    0.70   -0.25    0.00    0.00      -2.20    1.22   -0.43
#  14    1.38   -2.09    0.50   -1.15   -0.37    0.00    0.00      -1.73   -2.06   -0.67
#  15    1.29   -1.93    0.61   -1.01    0.92    0.00    0.00      -0.12   -2.16    1.96
#  16   -2.73   -3.39    1.26    3.02    0.20    0.00    0.00      -1.65    4.88    0.32
#  17    1.74   -2.18    0.53   -0.09   -0.45    0.00    0.00      -0.44   -0.14   -0.71
#  18   -0.68   -3.35    1.78   -0.27   -0.28    0.00    0.00      -2.80   -0.42   -0.44
#  19   -0.30   -4.08    2.81   -0.25   -0.30    0.00    0.00      -2.13   -0.39   -0.47
#  20   -1.23   -2.76    1.28   -0.23   -0.30    0.00    0.00      -3.24   -0.37   -0.47
#  21   -1.40   -2.65    0.83   -0.02   -0.29    0.00    0.00      -3.52   -0.03   -0.47
#  22   -1.91   -2.60    0.74    0.24   -0.27    0.00    0.00      -3.80    0.41   -0.46
#  23   -0.70   -0.12    0.01    0.00   -0.03    0.00    0.00      -0.85    0.02   -0.28
#  24   -1.28   -0.27    0.08    0.00   -0.06    0.00    0.00      -1.53   -0.01   -0.28
#  25   -1.27   -0.18    0.02    0.01   -0.04    0.00    0.00      -1.48    0.03   -0.23
#  26   -0.97   -0.56    0.49   -0.15   -0.08    0.00    0.00      -1.27   -0.57   -0.28
#  27    0.18   -0.56    0.25   -0.46   -0.08    0.00    0.00      -0.67   -1.16   -0.20
#  28   -0.66   -0.42    0.13   -0.36   -0.11    0.00    0.00      -1.42   -0.88   -0.28
#  29   -1.74   -0.75    0.66   -0.03   -0.13    0.00    0.00      -1.98   -0.06   -0.28
#  30   -1.83   -0.51    0.25   -0.04   -0.11    0.00    0.00      -2.24   -0.11   -0.28
#  31   -2.03   -0.78    0.44    0.01   -0.11    0.00    0.00      -2.47    0.02   -0.23
#  32    0.58   -0.57    0.28    1.06   -0.10    0.00    0.00       1.24    2.16   -0.21
#  33   -0.80   -0.02    0.00    0.84    0.14    0.00    0.00       0.16    3.07    0.52
#  34   -1.95   -0.03    0.00    0.53    0.22    0.00    0.00      -1.23    1.45    0.60
#  35    0.06   -0.85    0.54    0.80   -0.13    0.00    0.00       0.41    1.37   -0.23
#  36   -0.52   -1.23    1.19    0.90   -0.18    0.00    0.00       0.16    1.43   -0.28
#  37    1.21   -0.43    0.07    0.45   -0.14    0.00    0.00       1.16    0.93   -0.28
#  38    1.81   -0.64    0.27    0.15   -0.15    0.00    0.00       1.44    0.28   -0.28
#  39    2.78   -0.66    0.25   -0.32   -0.15    0.00    0.00       1.91   -0.60   -0.27
@<TRIPOS>MOLECULE
E2231491
   39    41     0     0     0
SMALL
USER_CHARGES


@<TRIPOS>ATOM
      1 C1         24.5699   19.2916   60.8769 C.3       1            -0.1193
      2 C2         23.5518   18.4099   61.5531 C.ar      1            -0.0676
      3 C3         23.8416   17.8405   62.7812 C.ar      1            -0.1272
      4 C4         22.9147   17.0304   63.4044 C.ar      1            -0.0511
      5 C5         21.6856   16.7843   62.7940 C.ar      1            -0.0411
      6 C6         21.4007   17.3589   61.5566 C.ar      1            -0.0796
      7 C7         22.3337   18.1714   60.9447 C.ar      1            -0.1016
      8 C8         22.0248   18.7979   59.6093 C.3       1            -0.1139
      9 C9         20.6857   15.9143   63.4586 C.2       1             0.1881
     10 N1         19.4697   16.2565   63.8202 N.2       1            -0.2769
     11 N2         18.8428   15.1571   64.4135 N.pl3     1            -0.3067
     12 C10        19.6837   14.1082   64.4226 C.2       1             0.1034
     13 C11        20.8644   14.5074   63.8310 C.2       1            -0.2763
     14 C12        22.0674   13.6845   63.6191 C.2       1             0.5968
     15 N3         23.1534   14.2187   63.0264 N.am      1            -0.8527
     16 O1         22.0805   12.5228   63.9790 O.2       1            -0.5286
     17 C13        17.5373   15.1497   64.9217 C.ar      1             0.1475
     18 C14        17.2111   14.3237   65.9894 C.ar      1            -0.1393
     19 C15        15.9233   14.3189   66.4885 C.ar      1            -0.0920
     20 C16        14.9592   15.1348   65.9260 C.ar      1            -0.1233
     21 C17        15.2807   15.9583   64.8625 C.ar      1            -0.0942
     22 C18        16.5683   15.9722   64.3628 C.ar      1            -0.1132
     23 H1         25.4619   19.3611   61.4995 H         1             0.0720
     24 H2         24.8347   18.8665   59.9088 H         1             0.0676
     25 H3         24.1484   20.2866   60.7338 H         1             0.0693
     26 H4         24.7940   18.0320   63.2529 H         1             0.1252
     27 H5         23.1411   16.5876   64.3631 H         1             0.1428
     28 H6         20.4502   17.1717   61.0792 H         1             0.1232
     29 H7         21.0260   18.5003   59.2907 H         1             0.0692
     30 H8         22.0695   19.8834   59.6983 H         1             0.0651
     31 H9         22.7559   18.4632   58.8733 H         1             0.0690
     32 H10        19.4710   13.1260   64.8181 H         1             0.1881
     33 H11        23.1429   15.1452   62.7393 H         1             0.3969
     34 H12        23.9457   13.6767   62.8869 H         1             0.4076
     35 H13        17.9635   13.6854   66.4287 H         1             0.1306
     36 H14        15.6691   13.6767   67.3188 H         1             0.1358
     37 H15        13.9528   15.1289   66.3178 H         1             0.1316
     38 H16        14.5255   16.5944   64.4251 H         1             0.1350
     39 H17        16.8199   16.6187   63.5351 H         1             0.1399
@<TRIPOS>BOND
     1    1    2 1 
     2    1   23 1 
     3    1   24 1 
     4    1   25 1 
     5    2    7 ar
     6    2    3 ar
     7    3    4 ar
     8    3   26 1 
     9    4    5 ar
    10    4   27 1 
    11    5    6 ar
    12    5    9 1 
    13    6    7 ar
    14    6   28 1 
    15    7    8 1 
    16    8   29 1 
    17    8   30 1 
    18    8   31 1 
    19    9   13 1 
    20    9   10 2 
    21   10   11 1 
    22   11   12 1 
    23   11   17 1 
    24   12   13 2 
    25   12   32 1 
    26   13   14 1 
    27   14   15 am
    28   14   16 2 
    29   15   33 1 
    30   15   34 1 
    31   17   22 ar
    32   17   18 ar
    33   18   19 ar
    34   18   35 1 
    35   19   20 ar
    36   19   36 1 
    37   20   21 ar
    38   20   37 1 
    39   21   22 ar
    40   21   38 1 
    41   22   39 1 
##########                 Name:             E3074555
##########          Protonation:                  100
##########               SMILES:   c1ccnc(c1)n2c(cc(n2)c3cccnc3)C(=O)NN
##########            Long Name:   2-(2-pyridyl)-5-(3-pyridyl)pyrazole-3-carbohydrazide
##########          FlexRecCode: 1
##########               Number:                  195
##########   Ligand Source File: /raidb/db2/rgc/leads-emolecules-300/leads-lt300-emolecules-1j-0000074.db2.gz
##########           GlobalRank: 4879
##########                 Rank:                    1
##########               Setnum:                   64
##########             Matchnum:                 2711
##########                Cloud:                    1
##########        Electrostatic:           -12.577860
##########        Van der Waals:           -32.123650
##########  Ligand Polar Desolv:             7.178048
########## Ligand Apolar Desolv:            -2.189509
##########      Internal Energy:             0.000000
##########      Receptor Energy: 0.0
########## Receptor Desolvation:             0.000000
########## Receptor Hydrophobic:             0.000000
##########         Total Energy: -39.71
##########        Ligand Charge:             0.000000
##########            Arbitrary:    +999.9990
##########     heavy atom count:   21
##########           pose count:    1
##########        Ligand Energy:             0.000000
# num electro vdwattr vdwrepu polsolv apolsol rdesolv rhydroe totalscore fullpol fullapo
#   1    2.44   -2.76    1.91   -0.20    0.18    0.00    0.00       1.56   -0.44    0.39
#   2    0.17   -1.97    0.51   -0.06    0.68    0.00    0.00      -0.66   -0.13    1.43
#   3    1.27   -2.07    0.50   -1.52   -0.36    0.00    0.00      -2.18   -2.75   -0.65
#   4   -2.22   -3.37    1.28    3.07    0.20    0.00    0.00      -1.03    4.96    0.33
#   5    0.32   -1.67    0.31   -0.07   -0.43    0.00    0.00      -1.54   -0.12   -0.74
#   6   -1.21   -1.95    0.44    0.05   -0.27    0.00    0.00      -2.95    0.09   -0.45
#   7    1.37   -1.82    0.28   -0.19   -0.45    0.00    0.00      -0.80   -0.33   -0.78
#   8   -3.75   -2.40    1.04    0.82    0.59    0.00    0.00      -3.69    1.58    1.15
#   9   -1.73   -1.64    0.30    0.97    0.33    0.00    0.00      -1.76    2.09    0.72
#  10    0.14   -1.46    0.31   -0.89   -0.83    0.00    0.00      -2.73   -2.09   -1.94
#  11    0.81   -1.73    0.72    0.30   -0.19    0.00    0.00      -0.10    0.69   -0.45
#  12    0.81   -1.25    0.17    0.00   -0.20    0.00    0.00      -0.46    0.01   -0.48
#  13    1.88   -0.88    0.04   -0.01   -0.18    0.00    0.00       0.86   -0.03   -0.48
#  14   -0.76   -1.29    0.17   -0.12   -0.37    0.00    0.00      -2.38   -0.33   -0.98
#  15    0.56   -1.51    0.19    1.57    0.56    0.00    0.00       1.38    3.69    1.32
#  16   -0.87   -2.20    0.54    0.07   -0.26    0.00    0.00      -2.72    0.11   -0.41
#  17   -0.34   -2.71    0.53    0.03   -0.29    0.00    0.00      -2.77    0.05   -0.45
#  18   -1.08   -3.21    0.95   -0.14   -0.31    0.00    0.00      -3.80   -0.22   -0.48
#  19    1.11   -2.73    1.32    0.05   -0.62    0.00    0.00      -0.87    0.08   -0.98
#  20   -5.91   -3.17    2.62    0.35    1.23    0.00    0.00      -4.88    0.58    2.05
#  21    1.74   -2.96    1.47    0.02   -0.55    0.00    0.00      -0.27    0.03   -0.93
#  22   -4.11   -0.18    0.09   -0.01    0.17    0.00    0.00      -4.03   -0.03    0.39
#  23   -1.50   -0.02    0.00    0.53    0.11    0.00    0.00      -0.87    1.93    0.41
#  24    0.02   -0.02    0.00    0.61    0.11    0.00    0.00       0.71    2.02    0.35
#  25    0.52   -0.57    0.29    0.63   -0.12    0.00    0.00       0.74    1.28   -0.24
#  26   -0.64   -0.44    0.16   -0.21   -0.12    0.00    0.00      -1.25   -0.50   -0.28
#  27   -2.97   -0.31    0.03    0.28   -0.10    0.00    0.00      -3.06    0.80   -0.28
#  28   -1.94   -0.14    0.00    0.11   -0.04    0.00    0.00      -2.00    0.91   -0.28
#  29   -1.18   -0.56    0.44   -0.06   -0.08    0.00    0.00      -1.43   -0.20   -0.28
#  30    0.74   -0.67    0.15   -0.08   -0.17    0.00    0.00      -0.04   -0.13   -0.28
#  31    0.20   -0.96    0.49    0.50   -0.17    0.00    0.00       0.05    0.80   -0.28
#  32    1.51   -0.42    0.07    0.36   -0.14    0.00    0.00       1.38    0.74   -0.28
#  33    2.02   -0.69    0.26    0.42   -0.13    0.00    0.00       1.88    0.77   -0.24
@<TRIPOS>MOLECULE
E3074555
   33    35     0     0     0
SMALL
USER_CHARGES


@<TRIPOS>ATOM
      1 N1         24.4381   13.5634   63.3962 N.3       1            -0.5958
      2 N2         23.3126   14.3118   63.5940 N.am      1            -0.5656
      3 C1         22.1020   13.7196   63.6008 C.2       1             0.5769
      4 O1         22.0116   12.5186   63.4306 O.2       1            -0.4750
      5 C2         20.8899   14.5258   63.8138 C.2       1             0.0685
      6 C3         19.7219   14.1036   64.4098 C.2       1            -0.2061
      7 C4         18.8285   15.1860   64.4084 C.2       1             0.1269
      8 N3         19.4204   16.2169   63.8406 N.2       1            -0.2452
      9 N4         20.7145   15.8391   63.4616 N.pl3     1            -0.2830
     10 C5         21.6580   16.6546   62.8333 C.ar      1             0.3445
     11 C6         21.3650   17.2209   61.5983 C.ar      1            -0.1516
     12 C7         22.3091   18.0274   60.9865 C.ar      1            -0.0628
     13 C8         23.5181   18.2396   61.6343 C.ar      1            -0.1712
     14 C9         23.7416   17.6445   62.8609 C.ar      1             0.1294
     15 N5         22.8207   16.8854   63.4218 N.ar      1            -0.4467
     16 C10        17.4484   15.1714   64.9542 C.ar      1            -0.0732
     17 C11        17.2220   14.8959   66.3055 C.ar      1            -0.0450
     18 C12        15.9166   14.8949   66.7656 C.ar      1            -0.1709
     19 C13        14.8875   15.1641   65.8815 C.ar      1             0.1095
     20 N6         15.1322   15.4201   64.6111 N.ar      1            -0.4809
     21 C14        16.3582   15.4378   64.1291 C.ar      1             0.1289
     22 H1         24.2351   12.7446   62.8425 H         1             0.3503
     23 H2         25.1690   14.1147   62.9720 H         1             0.3620
     24 H3         23.3848   15.2697   63.7295 H         1             0.4029
     25 H4         19.5285   13.1177   64.8062 H         1             0.1669
     26 H5         20.4138   17.0341   61.1224 H         1             0.1439
     27 H6         22.1096   18.4806   60.0268 H         1             0.1457
     28 H7         24.2763   18.8632   61.1840 H         1             0.1441
     29 H8         24.6808   17.8064   63.3687 H         1             0.1659
     30 H9         18.0448   14.6888   66.9737 H         1             0.1422
     31 H10        15.7038   14.6859   67.8036 H         1             0.1420
     32 H11        13.8676   15.1641   66.2370 H         1             0.1613
     33 H12        16.5191   15.6568   63.0838 H         1             0.1611
@<TRIPOS>BOND
     1    1    2 1 
     2    1   22 1 
     3    1   23 1 
     4    2    3 am
     5    2   24 1 
     6    3    4 2 
     7    3    5 1 
     8    5    9 1 
     9    5    6 2 
    10    6    7 1 
    11    6   25 1 
    12    7    8 2 
    13    7   16 1 
    14    8    9 1 
    15    9   10 1 
    16   10   15 ar
    17   10   11 ar
    18   11   12 ar
    19   11   26 1 
    20   12   13 ar
    21   12   27 1 
    22   13   14 ar
    23   13   28 1 
    24   14   15 ar
    25   14   29 1 
    26   16   21 ar
    27   16   17 ar
    28   17   18 ar
    29   17   30 1 
    30   18   19 ar
    31   18   31 1 
    32   19   20 ar
    33   19   32 1 
    34   20   21 ar
    35   21   33 1 
##########                 Name:            E31857419
##########          Protonation:                   85
##########               SMILES:   c1ccc(cc1)C[NH+]2CC[C@H](C2)NC(=O)c3ccc(=O)[nH]n3
##########            Long Name:   N-[(3R)-1-benzylpyrrolidin-1-ium-3-yl]-6-oxo-1H-pyridazine-3-carboxamide
##########          FlexRecCode: 1
##########               Number:                  344
##########   Ligand Source File: /raidb/db2/rgc/leads-emolecules-300/leads-emolecules-3-bj-0000001.db2.gz
##########           GlobalRank: 4893
##########                 Rank:                    1
##########               Setnum:                   23
##########             Matchnum:                 1728
##########                Cloud:                    1
##########        Electrostatic:           -20.216593
##########        Van der Waals:           -26.668995
##########  Ligand Polar Desolv:             7.837238
########## Ligand Apolar Desolv:            -0.647866
##########      Internal Energy:             0.000000
##########      Receptor Energy: 0.0
########## Receptor Desolvation:             0.000000
########## Receptor Hydrophobic:             0.000000
##########         Total Energy: -39.7
##########        Ligand Charge:             1.000000
##########            Arbitrary:    +999.9990
##########     heavy atom count:   22
##########           pose count:    1
##########        Ligand Energy:             0.000000
# num electro vdwattr vdwrepu polsolv apolsol rdesolv rhydroe totalscore fullpol fullapo
#   1    0.39   -3.40    1.26   -3.46    0.19    0.00    0.00      -5.02   -7.12    0.39
#   2   -0.65   -1.75    0.34    4.37   -0.29    0.00    0.00       2.02    9.86   -0.66
#   3    3.88   -1.26    0.11   -6.50    0.89    0.00    0.00      -2.88  -15.29    2.09
#   4   -1.49   -1.31    0.32    1.20   -0.14    0.00    0.00      -1.42    2.82   -0.33
#   5    3.08   -1.25    0.30   -1.85   -0.12    0.00    0.00       0.15   -4.15   -0.28
#   6    0.34   -1.14    0.26    0.03   -0.17    0.00    0.00      -0.68    0.09   -0.45
#   7    5.76   -1.27    0.48   -4.01    0.15    0.00    0.00       1.12  -12.20    0.45
#   8   -6.93   -0.07    0.01    4.62    0.16    0.00    0.00      -2.21   16.35    0.56
#   9   -0.47   -0.46    0.03    0.51   -0.08    0.00    0.00      -0.48    2.06   -0.33
#  10    0.32   -0.69    0.06   -0.63   -0.07    0.00    0.00      -1.01   -2.93   -0.34
#  11   -0.11   -0.66    0.04   -0.49   -0.09    0.00    0.00      -1.32   -2.08   -0.40
#  12   -0.33   -0.94    0.13   -0.78   -0.14    0.00    0.00      -2.05   -2.70   -0.47
#  13   -0.23   -0.87    0.09   -0.59   -0.12    0.00    0.00      -1.72   -2.21   -0.47
#  14   -0.26   -1.08    0.33   -0.60   -0.10    0.00    0.00      -1.72   -2.73   -0.47
#  15   -0.12   -1.15    0.37   -0.45   -0.10    0.00    0.00      -1.45   -2.01   -0.45
#  16    0.20   -1.01    0.18    0.15   -0.16    0.00    0.00      -0.64    0.43   -0.45
#  17    0.02   -1.64    0.34    0.06   -0.33    0.00    0.00      -1.55    0.14   -0.76
#  18   -0.81   -1.61    0.32   -0.95    0.49    0.00    0.00      -2.56   -1.99    1.03
#  19   -1.79   -1.68    0.28   -2.84    0.81    0.00    0.00      -5.22   -4.83    1.38
#  20    1.61   -2.43    0.56    1.84   -0.40    0.00    0.00       1.18    3.05   -0.66
#  21   -3.46   -4.79    3.49   -0.43    0.30    0.00    0.00      -4.89   -0.65    0.45
#  22    0.02   -2.57    0.96   -1.04   -0.25    0.00    0.00      -2.88   -1.99   -0.48
#  23    0.01   -1.85    0.52   -0.03   -0.20    0.00    0.00      -1.55   -0.07   -0.45
#  24   -2.54   -0.02    0.00    2.75    0.13    0.00    0.00       0.32   11.10    0.53
#  25   -1.24   -1.01    0.81    1.22   -0.12    0.00    0.00      -0.35    2.61   -0.26
#  26   -1.99   -0.27    0.02    0.98   -0.10    0.00    0.00      -1.35    2.86   -0.28
#  27   -2.50   -0.75    0.56    0.57   -0.12    0.00    0.00      -2.25    1.30   -0.28
#  28   -3.76   -0.45    0.26    1.34   -0.05    0.00    0.00      -2.66    4.47   -0.18
#  29   -3.90   -0.64    0.43    1.54   -0.10    0.00    0.00      -2.67    4.21   -0.28
#  30   -1.43   -0.11    0.00    0.67   -0.03    0.00    0.00      -0.89    6.80   -0.28
#  31   -1.64   -0.16    0.02    0.90   -0.04    0.00    0.00      -0.92    6.06   -0.27
#  32   -0.14   -0.11    0.00    0.52   -0.03    0.00    0.00       0.25    4.65   -0.24
#  33    0.42   -0.39    0.28    0.38   -0.07    0.00    0.00       0.62    1.49   -0.28
#  34    0.41   -0.20    0.03    0.13   -0.05    0.00    0.00       0.32    0.75   -0.28
#  35    0.28   -0.23    0.05    0.25   -0.05    0.00    0.00       0.31    1.44   -0.28
#  36   -0.12   -0.35    0.23    0.92   -0.05    0.00    0.00       0.62    4.75   -0.28
#  37   -0.83   -0.71    0.44    2.38   -0.10    0.00    0.00       1.19    6.77   -0.28
#  38   -1.45   -0.15    0.01    0.92   -0.04    0.00    0.00      -0.71    6.71   -0.26
#  39    2.18   -0.02    0.00    2.85    0.18    0.00    0.00       5.18    6.30    0.39
#  40   -0.67   -0.89    1.01    0.69   -0.13    0.00    0.00       0.02    1.49   -0.28
#  41   -0.28   -0.32    0.07    0.67   -0.07    0.00    0.00       0.05    2.42   -0.27
@<TRIPOS>MOLECULE
E31857419
   41    43     0     0     0
SMALL
USER_CHARGES


@<TRIPOS>ATOM
      1 O1         23.2913   17.7477   64.4418 O.2       1            -0.5041
      2 C1         22.6374   17.2347   63.5547 C.2       1             0.6050
      3 N1         22.1772   17.9871   62.5354 N.am      1            -0.7117
      4 C2         22.4650   19.4230   62.4967 C.3       1             0.1322
      5 C3         21.8889   20.0456   61.2308 C.3       1            -0.1574
      6 C4         23.0930   20.6496   60.4995 C.3       1            -0.0143
      7 N2         24.0860   20.8833   61.5769 N.4       1            -0.3854
      8 H1         23.8434   21.7023   62.1141 H         1             0.4299
      9 C5         25.4384   21.0119   61.0179 C.3       1             0.0466
     10 C6         26.3274   21.7161   62.0102 C.ar      1            -0.1635
     11 C7         26.4317   23.0944   61.9882 C.ar      1            -0.0964
     12 C8         27.2471   23.7404   62.8984 C.ar      1            -0.1128
     13 C9         27.9580   23.0083   63.8310 C.ar      1            -0.0828
     14 C10        27.8529   21.6300   63.8536 C.ar      1            -0.1126
     15 C11        27.0341   20.9843   62.9461 C.ar      1            -0.0931
     16 C12        23.9715   19.6612   62.4048 C.3       1            -0.0194
     17 C13        22.3521   15.7841   63.5905 C.2       1             0.0143
     18 N3         21.1082   15.3618   63.6213 N.2       1            -0.1769
     19 N4         20.8086   14.1138   63.6531 N.am      1            -0.4326
     20 C14        21.7554   13.1569   63.6569 C.2       1             0.4809
     21 O2         21.4383   11.9795   63.6871 O.2       1            -0.5016
     22 C15        23.1187   13.5257   63.6251 C.2       1            -0.1700
     23 C16        23.4201   14.8546   63.5857 C.2       1            -0.0421
     24 H2         21.6556   17.5777   61.8275 H         1             0.4174
     25 H3         22.0562   19.9146   63.3795 H         1             0.1317
     26 H4         21.4153   19.2815   60.6142 H         1             0.1040
     27 H5         21.1699   20.8244   61.4848 H         1             0.1207
     28 H6         23.4852   19.9472   59.7638 H         1             0.1353
     29 H7         22.8180   21.5902   60.0224 H         1             0.1358
     30 H8         25.8409   20.0206   60.8091 H         1             0.1379
     31 H9         25.3964   21.5889   60.0942 H         1             0.1360
     32 H10        25.8765   23.6664   61.2596 H         1             0.1301
     33 H11        27.3293   24.8171   62.8807 H         1             0.1364
     34 H12        28.5956   23.5129   64.5416 H         1             0.1363
     35 H13        28.4084   21.0581   64.5820 H         1             0.1366
     36 H14        26.9491   19.9080   62.9662 H         1             0.1316
     37 H15        24.3934   19.8295   63.3957 H         1             0.1469
     38 H16        24.4627   18.8202   61.9153 H         1             0.1395
     39 H17        19.8745   13.8534   63.6755 H         1             0.4472
     40 H18        23.8979   12.7779   63.6273 H         1             0.1767
     41 H19        24.4464   15.1896   63.5557 H         1             0.1675
@<TRIPOS>BOND
     1    1    2 2 
     2    2    3 am
     3    2   17 1 
     4    3    4 1 
     5    3   24 1 
     6    4   16 1 
     7    4    5 1 
     8    4   25 1 
     9    5    6 1 
    10    5   26 1 
    11    5   27 1 
    12    6    7 1 
    13    6   28 1 
    14    6   29 1 
    15    7    8 1 
    16    7    9 1 
    17    7   16 1 
    18    9   10 1 
    19    9   30 1 
    20    9   31 1 
    21   10   15 ar
    22   10   11 ar
    23   11   12 ar
    24   11   32 1 
    25   12   13 ar
    26   12   33 1 
    27   13   14 ar
    28   13   34 1 
    29   14   15 ar
    30   14   35 1 
    31   15   36 1 
    32   16   37 1 
    33   16   38 1 
    34   17   23 1 
    35   17   18 2 
    36   18   19 1 
    37   19   20 am
    38   19   39 1 
    39   20   21 2 
    40   20   22 1 
    41   22   23 2 
    42   22   40 1 
    43   23   41 1 
##########                 Name:            E32420551
##########          Protonation:                   99
##########               SMILES:   c1ccc(cc1)c2cn(cn2)c3ccccc3CO
##########            Long Name:   [2-(4-phenylimidazol-1-yl)phenyl]methanol
##########          FlexRecCode: 1
##########               Number:                  257
##########   Ligand Source File: /raidb/db2/rgc/leads-emolecules-300/leads-lt300-emolecules-1-0000011.db2.gz
##########           GlobalRank: 4942
##########                 Rank:                    1
##########               Setnum:                   16
##########             Matchnum:                 3673
##########                Cloud:                    1
##########        Electrostatic:            -9.429604
##########        Van der Waals:           -31.206432
##########  Ligand Polar Desolv:             4.648545
########## Ligand Apolar Desolv:            -3.694442
##########      Internal Energy:             0.000000
##########      Receptor Energy: 0.0
########## Receptor Desolvation:             0.000000
########## Receptor Hydrophobic:             0.000000
##########         Total Energy: -39.68
##########        Ligand Charge:             0.000000
##########            Arbitrary:    +999.9990
##########     heavy atom count:   19
##########           pose count:    1
##########        Ligand Energy:             0.000000
# num electro vdwattr vdwrepu polsolv apolsol rdesolv rhydroe totalscore fullpol fullapo
#   1   -3.67   -4.26    2.77   -0.14    1.03    0.00    0.00      -4.27   -0.21    1.56
#   2    0.42   -1.40    0.22    0.00   -0.08    0.00    0.00      -0.85    0.00   -0.13
#   3   -0.28   -1.74    0.45    0.05   -0.22    0.00    0.00      -1.74    0.09   -0.40
#   4   -0.04   -1.90    0.49    0.01   -0.22    0.00    0.00      -1.65    0.03   -0.44
#   5    0.15   -1.57    0.32   -0.08   -0.20    0.00    0.00      -1.39   -0.20   -0.47
#   6    0.19   -1.40    0.18   -0.10   -0.19    0.00    0.00      -1.33   -0.25   -0.47
#   7   -0.23   -1.67    0.37   -0.05   -0.20    0.00    0.00      -1.78   -0.11   -0.45
#   8    0.62   -1.64    0.36   -0.03   -0.29    0.00    0.00      -0.98   -0.07   -0.64
#   9   -4.80   -1.80    0.32    0.39    0.42    0.00    0.00      -5.47    0.76    0.81
#  10    2.50   -3.29    2.66   -0.28   -1.47    0.00    0.00       0.13   -0.52   -2.73
#  11   -7.38   -3.51    1.75    1.83    1.23    0.00    0.00      -6.08    3.14    2.10
#  12    0.65   -2.25    0.48    0.01   -0.45    0.00    0.00      -1.56    0.01   -0.75
#  13   -0.32   -1.93    0.34    0.03   -0.52    0.00    0.00      -2.40    0.05   -0.90
#  14   -0.06   -2.50    0.79    0.10   -0.26    0.00    0.00      -1.93    0.16   -0.41
#  15   -0.88   -2.84    0.74    0.14   -0.29    0.00    0.00      -3.13    0.22   -0.45
#  16   -0.61   -3.65    1.22    0.06   -0.31    0.00    0.00      -3.29    0.09   -0.47
#  17   -1.06   -2.84    0.85    0.11   -0.31    0.00    0.00      -3.25    0.16   -0.47
#  18   -1.33   -2.24    0.61    0.26   -0.31    0.00    0.00      -3.00    0.40   -0.47
#  19   -1.25   -2.77    1.05    0.42   -0.27    0.00    0.00      -2.82    0.70   -0.45
#  20    1.96   -0.15    0.01    1.22    0.80    0.00    0.00       3.85    1.89    1.24
#  21    0.22   -0.44    0.08    0.07   -0.11    0.00    0.00      -0.18    0.13   -0.21
#  22    0.24   -0.49    0.22   -0.02   -0.14    0.00    0.00      -0.20   -0.05   -0.28
#  23   -0.11   -0.50    0.15   -0.03   -0.11    0.00    0.00      -0.59   -0.06   -0.24
#  24   -0.34   -0.26    0.04    0.18   -0.07    0.00    0.00      -0.46    0.72   -0.28
#  25   -0.65   -0.25    0.02    0.23   -0.07    0.00    0.00      -0.71    0.90   -0.28
#  26    0.33   -0.44    0.18    0.10   -0.10    0.00    0.00       0.08    0.30   -0.28
#  27    1.03   -0.75    0.65    0.07   -0.11    0.00    0.00       0.89    0.14   -0.23
#  28    1.62   -0.46    0.14    0.10   -0.11    0.00    0.00       1.29    0.23   -0.25
#  29    0.59   -0.54    0.08    0.09   -0.14    0.00    0.00       0.08    0.15   -0.24
#  30   -0.26   -1.45    2.17    0.25   -0.18    0.00    0.00       0.53    0.38   -0.28
#  31    1.02   -0.93    1.21    0.14   -0.16    0.00    0.00       1.28    0.24   -0.28
#  32    1.20   -0.42    0.09   -0.07   -0.13    0.00    0.00       0.68   -0.14   -0.28
#  33    1.11   -0.91    0.97   -0.41   -0.15    0.00    0.00       0.61   -0.74   -0.27
@<TRIPOS>MOLECULE
E32420551
   33    35     0     0     0
SMALL
USER_CHARGES


@<TRIPOS>ATOM
      1 O1         21.3878   12.0116   63.8290 O.3       1            -0.5662
      2 C1         20.5638   13.1769   63.7582 C.3       1             0.1142
      3 C2         21.4320   14.3961   63.5828 C.ar      1            -0.0865
      4 C3         22.8051   14.2625   63.5101 C.ar      1            -0.0796
      5 C4         23.6023   15.3806   63.3488 C.ar      1            -0.1113
      6 C5         23.0282   16.6356   63.2600 C.ar      1            -0.1020
      7 C6         21.6562   16.7755   63.3324 C.ar      1            -0.1119
      8 C7         20.8526   15.6539   63.4883 C.ar      1             0.1155
      9 N1         19.4590   15.7922   63.5563 N.pl3     1            -0.4133
     10 C8         18.6528   16.3116   62.5933 C.2       1             0.1918
     11 N2         17.4189   16.2767   63.0125 N.2       1            -0.4701
     12 C9         17.3836   15.7390   64.2487 C.2       1             0.0414
     13 C10        18.6569   15.4236   64.6027 C.2       1            -0.0262
     14 C11        16.1693   15.5240   65.0732 C.ar      1            -0.0045
     15 C12        16.2770   14.9606   66.3434 C.ar      1            -0.1120
     16 C13        15.1440   14.7632   67.1063 C.ar      1            -0.1185
     17 C14        13.9032   15.1236   66.6124 C.ar      1            -0.1202
     18 C15        13.7902   15.6828   65.3523 C.ar      1            -0.1197
     19 C16        14.9172   15.8899   64.5831 C.ar      1            -0.0945
     20 H1         20.8948   11.1875   63.9421 H         1             0.3893
     21 H2         19.8837   13.0902   62.9108 H         1             0.0642
     22 H3         19.9874   13.2707   64.6786 H         1             0.0625
     23 H4         23.2563   13.2838   63.5799 H         1             0.1443
     24 H5         24.6754   15.2737   63.2922 H         1             0.1336
     25 H6         23.6533   17.5071   63.1343 H         1             0.1354
     26 H7         21.2083   17.7559   63.2634 H         1             0.1333
     27 H8         18.9809   16.6916   61.6370 H         1             0.2093
     28 H9         18.9748   14.9717   65.5306 H         1             0.1799
     29 H10        17.2454   14.6785   66.7298 H         1             0.1208
     30 H11        15.2263   14.3264   68.0906 H         1             0.1243
     31 H12        13.0192   14.9675   67.2129 H         1             0.1223
     32 H13        12.8189   15.9620   64.9716 H         1             0.1242
     33 H14        14.8283   16.3308   63.6011 H         1             0.1301
@<TRIPOS>BOND
     1    1    2 1 
     2    1   20 1 
     3    2    3 1 
     4    2   21 1 
     5    2   22 1 
     6    3    8 ar
     7    3    4 ar
     8    4    5 ar
     9    4   23 1 
    10    5    6 ar
    11    5   24 1 
    12    6    7 ar
    13    6   25 1 
    14    7    8 ar
    15    7   26 1 
    16    8    9 1 
    17    9   13 1 
    18    9   10 1 
    19   10   11 2 
    20   10   27 1 
    21   11   12 1 
    22   12   13 2 
    23   12   14 1 
    24   13   28 1 
    25   14   19 ar
    26   14   15 ar
    27   15   16 ar
    28   15   29 1 
    29   16   17 ar
    30   16   30 1 
    31   17   18 ar
    32   17   31 1 
    33   18   19 ar
    34   18   32 1 
    35   19   33 1 
##########                 Name:             E1341325
##########          Protonation:                   74
##########               SMILES:   C[NH+]1CCN(CC1)Cc2ccc(c(c2)C(=O)OC)O
##########            Long Name:   methyl
##########          FlexRecCode: 1
##########               Number:                  357
##########   Ligand Source File: /raidb/db2/rgc/leads-emolecules-300/leads-lt300-emolecules-1d-0000026.db2.gz
##########           GlobalRank: 4942
##########                 Rank:                    1
##########               Setnum:                   71
##########             Matchnum:                 7259
##########                Cloud:                    1
##########        Electrostatic:           -27.841660
##########        Van der Waals:           -22.429911
##########  Ligand Polar Desolv:            11.921034
########## Ligand Apolar Desolv:            -1.330585
##########      Internal Energy:             0.000000
##########      Receptor Energy: 0.0
########## Receptor Desolvation:             0.000000
########## Receptor Hydrophobic:             0.000000
##########         Total Energy: -39.68
##########        Ligand Charge:             1.000000
##########            Arbitrary:    +999.9990
##########     heavy atom count:   19
##########           pose count:    1
##########        Ligand Energy:             0.000000
# num electro vdwattr vdwrepu polsolv apolsol rdesolv rhydroe totalscore fullpol fullapo
#   1    0.52   -1.47    0.27    0.11    0.03    0.00    0.00      -0.54    0.17    0.04
#   2   -4.62   -1.91    0.49   -1.40    0.18    0.00    0.00      -7.25   -2.41    0.31
#   3    5.73   -1.78    0.31    1.07   -0.09    0.00    0.00       5.25    2.01   -0.16
#   4   -5.20   -2.15    0.54    0.08   -0.32    0.00    0.00      -7.05    0.14   -0.58
#   5   -0.90   -1.67    0.37   -0.75   -0.20    0.00    0.00      -3.15   -1.58   -0.41
#   6   -0.15   -1.89    0.59   -0.11   -0.16    0.00    0.00      -1.73   -0.25   -0.35
#   7    0.12   -1.51    0.23   -0.53   -0.14    0.00    0.00      -1.83   -1.27   -0.34
#   8   -0.51   -1.18    0.25    0.82   -0.16    0.00    0.00      -0.77    2.04   -0.39
#   9    5.28   -0.88    0.05   -4.40    1.11    0.00    0.00       1.15  -12.74    3.21
#  10   -0.17   -0.53    0.04    0.00   -0.10    0.00    0.00      -0.76    0.00   -0.37
#  11    0.05   -0.79    0.26    0.14   -0.12    0.00    0.00      -0.46    0.50   -0.43
#  12   10.60   -2.48    4.19   -4.05    0.20    0.00    0.00       8.46  -11.39    0.57
#  13  -20.55   -0.42    0.64    6.27    0.21    0.00    0.00     -13.85   16.68    0.56
#  14    1.20   -1.00    0.21   -0.64   -0.15    0.00    0.00      -0.37   -1.89   -0.45
#  15    0.08   -1.23    0.31    0.19   -0.19    0.00    0.00      -0.84    0.44   -0.43
#  16   -0.34   -0.69    0.04    0.14   -0.16    0.00    0.00      -1.01    0.33   -0.39
#  17    0.04   -1.60    0.33   -0.15   -0.19    0.00    0.00      -1.57   -0.36   -0.45
#  18   -0.08   -1.94    0.51   -0.86   -0.23    0.00    0.00      -2.59   -1.73   -0.46
#  19    0.63   -1.76    0.42    0.35   -0.18    0.00    0.00      -0.55    0.61   -0.31
#  20   -1.76   -1.76    0.21   -1.08    0.31    0.00    0.00      -4.07   -1.73    0.50
#  21    0.91   -0.50    0.12    0.10   -0.14    0.00    0.00       0.48    0.20   -0.28
#  22    1.52   -0.67    0.43    0.14   -0.14    0.00    0.00       1.28    0.28   -0.28
#  23    1.17   -0.55    0.30    0.89   -0.12    0.00    0.00       1.69    2.11   -0.28
#  24    0.73   -0.56    0.35    0.99   -0.10    0.00    0.00       1.42    2.74   -0.27
#  25   -0.41   -0.50    0.10    0.94   -0.12    0.00    0.00       0.00    2.19   -0.27
#  26   -0.40   -0.86    1.20    0.47   -0.09    0.00    0.00       0.32    1.46   -0.28
#  27   -0.56   -0.21    0.02    0.43   -0.04    0.00    0.00      -0.36    2.18   -0.22
#  28   -0.96   -0.17    0.03    0.17   -0.03    0.00    0.00      -0.96    1.19   -0.21
#  29   -1.70   -0.16    0.03    0.68   -0.04    0.00    0.00      -1.19    5.02   -0.28
#  30   -2.29   -0.30    0.08    0.88   -0.07    0.00    0.00      -1.70    3.74   -0.28
#  31   -3.46   -0.57    0.33    1.53   -0.10    0.00    0.00      -2.28    4.29   -0.28
#  32   -2.19   -0.35    0.16    1.16   -0.07    0.00    0.00      -1.29    4.69   -0.28
#  33   -1.68   -0.17    0.01    0.55   -0.03    0.00    0.00      -1.32    2.83   -0.15
#  34   -3.87   -0.56    0.33    2.29   -0.11    0.00    0.00      -1.93    5.78   -0.28
#  35   -3.40   -0.50    0.16    1.68   -0.11    0.00    0.00      -2.18    4.10   -0.28
#  36   -1.26   -0.21    0.01    0.62   -0.07    0.00    0.00      -0.91    2.52   -0.28
#  37   -0.96   -0.33    0.07    0.62   -0.06    0.00    0.00      -0.66    2.16   -0.22
#  38   -0.35   -0.26    0.03    0.77   -0.07    0.00    0.00       0.13    3.08   -0.28
#  39   -0.18   -0.53    0.18    0.62   -0.12    0.00    0.00      -0.03    1.42   -0.28
#  40    1.53   -0.03    0.00    1.21    0.62    0.00    0.00       3.33    2.39    1.22
@<TRIPOS>MOLECULE
E1341325
   40    41     0     0     0
SMALL
USER_CHARGES


@<TRIPOS>ATOM
      1 C1         17.3234   15.7458   65.1055 C.3       1             0.0338
      2 O1         18.7483   15.6618   65.0372 O.3       1            -0.3570
      3 C2         19.2984   15.5853   63.8095 C.2       1             0.4997
      4 O2         18.5878   15.5898   62.8241 O.2       1            -0.4783
      5 C3         20.7623   15.4961   63.6623 C.ar      1            -0.1548
      6 C4         21.5301   16.6589   63.5537 C.ar      1            -0.0456
      7 C5         22.8979   16.5685   63.4162 C.ar      1            -0.1212
      8 C6         23.7245   17.8232   63.2993 C.3       1             0.0999
      9 N1         23.8523   18.1952   61.8840 N.3       1            -0.5344
     10 C7         25.0480   19.0205   61.6620 C.3       1             0.0169
     11 C8         25.1768   19.3359   60.1703 C.3       1            -0.0032
     12 N2         23.9767   20.0501   59.7152 N.4       1            -0.3849
     13 H1         24.0675   20.2689   58.7344 H         1             0.4307
     14 C9         23.8273   21.2941   60.4823 C.3       1            -0.0580
     15 C10        22.7938   19.2039   59.9204 C.3       1            -0.0032
     16 C11        22.6452   18.8873   61.4102 C.3       1             0.0238
     17 C12        23.5172   15.3294   63.3856 C.ar      1            -0.0399
     18 C13        22.7711   14.1727   63.4918 C.ar      1            -0.1551
     19 C14        21.3935   14.2445   63.6361 C.ar      1             0.1885
     20 O3         20.6598   13.1090   63.7463 O.3       1            -0.4781
     21 H2         17.0123   15.8018   66.1487 H         1             0.0648
     22 H3         16.9863   16.6378   64.5775 H         1             0.0639
     23 H4         16.8846   14.8619   64.6424 H         1             0.1056
     24 H5         21.0517   17.6270   63.5771 H         1             0.1379
     25 H6         23.2374   18.6314   63.8448 H         1             0.1015
     26 H7         24.7146   17.6464   63.7194 H         1             0.0591
     27 H8         24.9577   19.9501   62.2239 H         1             0.0641
     28 H9         25.9319   18.4773   61.9966 H         1             0.1241
     29 H10        26.0554   19.9598   60.0053 H         1             0.1362
     30 H11        25.2809   18.4066   59.6101 H         1             0.1392
     31 H12        22.9367   21.8243   60.1448 H         1             0.1259
     32 H13        23.7298   21.0579   61.5420 H         1             0.1262
     33 H14        24.7044   21.9228   60.3294 H         1             0.1198
     34 H15        21.9057   19.7300   59.5704 H         1             0.1367
     35 H16        22.9101   18.2753   59.3616 H         1             0.1392
     36 H17        21.7761   18.2471   61.5611 H         1             0.1243
     37 H18        22.5153   19.8148   61.9680 H         1             0.0632
     38 H19        24.5901   15.2681   63.2776 H         1             0.1378
     39 H20        23.2614   13.2107   63.4670 H         1             0.1456
     40 H21        19.7096   13.2622   63.8391 H         1             0.4053
@<TRIPOS>BOND
     1    1    2 1 
     2    1   21 1 
     3    1   22 1 
     4    1   23 1 
     5    2    3 1 
     6    3    4 2 
     7    3    5 1 
     8    5   19 ar
     9    5    6 ar
    10    6    7 ar
    11    6   24 1 
    12    7    8 1 
    13    7   17 ar
    14    8    9 1 
    15    8   25 1 
    16    8   26 1 
    17    9   16 1 
    18    9   10 1 
    19   10   11 1 
    20   10   27 1 
    21   10   28 1 
    22   11   12 1 
    23   11   29 1 
    24   11   30 1 
    25   12   13 1 
    26   12   14 1 
    27   12   15 1 
    28   14   31 1 
    29   14   32 1 
    30   14   33 1 
    31   15   16 1 
    32   15   34 1 
    33   15   35 1 
    34   16   36 1 
    35   16   37 1 
    36   17   18 ar
    37   17   38 1 
    38   18   19 ar
    39   18   39 1 
    40   19   20 1 
    41   20   40 1 
##########                 Name:            E25831074
##########          Protonation:                   34
##########               SMILES:   [H]/N=C(/c1ccccc1)\NOC(=O)/C=C/c2ccccc2
##########            Long Name:   (benzenecarboximidoylamino)
##########          FlexRecCode: 1
##########               Number:                  941
##########   Ligand Source File: /raidb/db2/rgc/leads-emolecules-300/leads-lt300-emolecules-1d-0000172.db2.gz
##########           GlobalRank: 4942
##########                 Rank:                    1
##########               Setnum:                   31
##########             Matchnum:                 2813
##########                Cloud:                    1
##########        Electrostatic:            -7.431067
##########        Van der Waals:           -31.739473
##########  Ligand Polar Desolv:             3.968601
########## Ligand Apolar Desolv:            -4.474252
##########      Internal Energy:             0.000000
##########      Receptor Energy: 0.0
########## Receptor Desolvation:             0.000000
########## Receptor Hydrophobic:             0.000000
##########         Total Energy: -39.68
##########        Ligand Charge:             0.000000
##########            Arbitrary:    +999.9990
##########     heavy atom count:   20
##########           pose count:    1
##########        Ligand Energy:             0.000000
# num electro vdwattr vdwrepu polsolv apolsol rdesolv rhydroe totalscore fullpol fullapo
#   1  -12.96   -2.67    1.79    2.58    0.70    0.00    0.00     -10.56    4.85    1.31
#   2    5.30   -1.79    0.26   -1.32   -1.27    0.00    0.00       1.17   -2.29   -2.20
#   3   -3.81   -1.79    0.26    1.46    0.38    0.00    0.00      -3.49    2.46    0.64
#   4   -0.46   -1.38    0.28    0.29   -0.34    0.00    0.00      -1.61    0.50   -0.59
#   5    1.57   -2.14    0.50   -0.91   -0.10    0.00    0.00      -1.08   -1.59   -0.17
#   6   -2.59   -3.51    1.72    1.81   -0.23    0.00    0.00      -2.81    2.88   -0.37
#   7    0.01   -2.12    0.70    0.02   -0.22    0.00    0.00      -1.61    0.05   -0.45
#   8   -0.02   -1.59    0.33    0.00   -0.19    0.00    0.00      -1.47    0.01   -0.44
#   9    0.33   -1.47    0.33   -0.02   -0.14    0.00    0.00      -0.97   -0.05   -0.41
#  10    0.25   -1.71    0.52   -0.04   -0.15    0.00    0.00      -1.14   -0.13   -0.44
#  11    0.35   -1.14    0.29   -0.06   -0.12    0.00    0.00      -0.69   -0.24   -0.47
#  12    0.39   -1.06    0.51   -0.04   -0.09    0.00    0.00      -0.29   -0.20   -0.47
#  13    0.85   -1.14    0.56   -0.05   -0.10    0.00    0.00       0.12   -0.23   -0.47
#  14    0.58   -1.17    0.28   -0.03   -0.13    0.00    0.00      -0.46   -0.11   -0.45
#  15   -0.62   -2.16    0.46    0.17   -0.26    0.00    0.00      -2.41    0.27   -0.41
#  16   -0.51   -3.02    0.84    0.05   -0.28    0.00    0.00      -2.91    0.08   -0.44
#  17   -0.21   -3.96    1.49   -0.11   -0.32    0.00    0.00      -3.11   -0.16   -0.47
#  18   -0.76   -3.01    0.85   -0.11   -0.30    0.00    0.00      -3.34   -0.17   -0.47
#  19   -1.67   -2.49    0.73   -0.02   -0.29    0.00    0.00      -3.74   -0.03   -0.47
#  20   -0.90   -2.51    0.70    0.13   -0.28    0.00    0.00      -2.86    0.21   -0.46
#  21    3.83   -0.03    0.00   -0.76    0.20    0.00    0.00       3.25   -2.01    0.53
#  22    1.75   -0.04    0.00   -0.56    0.17    0.00    0.00       1.32   -1.23    0.37
#  23   -0.41   -0.50    0.18    0.17   -0.08    0.00    0.00      -0.65    0.41   -0.21
#  24    0.02   -0.25    0.03    0.01   -0.07    0.00    0.00      -0.28    0.02   -0.26
#  25   -0.18   -0.43    0.17    0.15   -0.07    0.00    0.00      -0.36    0.48   -0.21
#  26   -0.13   -0.14    0.01    0.08   -0.04    0.00    0.00      -0.22    0.56   -0.28
#  27   -0.17   -0.09    0.01    0.06   -0.03    0.00    0.00      -0.22    0.60   -0.28
#  28   -0.88   -0.12    0.01    0.07   -0.03    0.00    0.00      -0.96    0.56   -0.28
#  29   -1.07   -0.16    0.01    0.06   -0.04    0.00    0.00      -1.20    0.42   -0.28
#  30    0.42   -0.87    0.75    0.07   -0.13    0.00    0.00       0.24    0.12   -0.22
#  31   -0.73   -1.25    0.65    0.45   -0.19    0.00    0.00      -1.06    0.67   -0.28
#  32    0.87   -0.66    0.19    0.42   -0.15    0.00    0.00       0.67    0.77   -0.28
#  33    1.77   -0.41    0.06    0.20   -0.13    0.00    0.00       1.48    0.42   -0.28
#  34    2.37   -0.57    0.15   -0.25   -0.14    0.00    0.00       1.56   -0.46   -0.27
@<TRIPOS>MOLECULE
E25831074
   34    35     0     0     0
SMALL
USER_CHARGES


@<TRIPOS>ATOM
      1 N1         18.9088   16.2699   63.4535 N.2       1            -0.7326
      2 C1         18.7201   15.2395   64.2310 C.2       1             0.4692
      3 N2         19.6407   14.2233   64.2581 N.pl3     1            -0.6120
      4 O1         20.7960   14.2924   63.4423 O.3       1            -0.1156
      5 C2         21.8686   13.6643   63.9577 C.2       1             0.4870
      6 O2         21.7180   12.6965   64.6798 O.2       1            -0.5013
      7 C3         23.2158   14.1449   63.6498 C.2       1            -0.2073
      8 C4         23.4249   15.4544   63.4040 C.2       1             0.0191
      9 C5         24.7801   15.9379   63.0943 C.ar      1            -0.0921
     10 C6         25.8968   15.1750   63.4500 C.ar      1            -0.0931
     11 C7         27.1633   15.6345   63.1559 C.ar      1            -0.1233
     12 C8         27.3308   16.8473   62.5106 C.ar      1            -0.0979
     13 C9         26.2305   17.6085   62.1559 C.ar      1            -0.1241
     14 C10        24.9575   17.1599   62.4379 C.ar      1            -0.0857
     15 C11        17.5117   15.1671   65.0846 C.ar      1            -0.0530
     16 C12        17.5564   14.4953   66.3056 C.ar      1            -0.0992
     17 C13        16.4275   14.4316   67.0966 C.ar      1            -0.1207
     18 C14        15.2530   15.0322   66.6802 C.ar      1            -0.0979
     19 C15        15.2025   15.7001   65.4698 C.ar      1            -0.1238
     20 C16        16.3265   15.7755   64.6728 C.ar      1            -0.0579
     21 H1         19.7001   16.3173   62.8946 H         1             0.3463
     22 H2         19.5005   13.4570   64.8363 H         1             0.4213
     23 H3         24.0429   13.4510   63.6192 H         1             0.1472
     24 H4         22.5977   16.1481   63.4345 H         1             0.1417
     25 H5         25.7678   14.2284   63.9538 H         1             0.1303
     26 H6         28.0268   15.0467   63.4301 H         1             0.1296
     27 H7         28.3250   17.2020   62.2831 H         1             0.1279
     28 H8         26.3692   18.5540   61.6529 H         1             0.1298
     29 H9         24.0997   17.7526   62.1561 H         1             0.1309
     30 H10        18.4727   14.0255   66.6314 H         1             0.1225
     31 H11        16.4610   13.9115   68.0425 H         1             0.1304
     32 H12        14.3718   14.9792   67.3024 H         1             0.1285
     33 H13        14.2826   16.1668   65.1498 H         1             0.1321
     34 H14        16.2870   16.3008   63.7299 H         1             0.1435
@<TRIPOS>BOND
     1    1    2 2 
     2    1   21 1 
     3    2    3 1 
     4    2   15 1 
     5    3    4 1 
     6    3   22 1 
     7    4    5 1 
     8    5    6 2 
     9    5    7 1 
    10    7    8 2 
    11    7   23 1 
    12    8    9 1 
    13    8   24 1 
    14    9   14 ar
    15    9   10 ar
    16   10   11 ar
    17   10   25 1 
    18   11   12 ar
    19   11   26 1 
    20   12   13 ar
    21   12   27 1 
    22   13   14 ar
    23   13   28 1 
    24   14   29 1 
    25   15   20 ar
    26   15   16 ar
    27   16   17 ar
    28   16   30 1 
    29   17   18 ar
    30   17   31 1 
    31   18   19 ar
    32   18   32 1 
    33   19   20 ar
    34   19   33 1 
    35   20   34 1 
##########                 Name:             E1671137
##########          Protonation:                   47
##########               SMILES:   c1ccc2cc(ccc2c1)C(=O)Nc3ccccc3[N+](=O)[O-]
##########            Long Name:   N-(2-nitrophenyl)naphthalene-2-carboxamide
##########          FlexRecCode: 1
##########               Number:                   16
##########   Ligand Source File: /raidb/db2/rgc/leads-emolecules-300/leads-emolecules-2e-0000348.db2.gz
##########           GlobalRank: 4968
##########                 Rank:                    1
##########               Setnum:                   19
##########             Matchnum:                  333
##########                Cloud:                    1
##########        Electrostatic:            -4.636579
##########        Van der Waals:           -34.274586
##########  Ligand Polar Desolv:             4.448357
########## Ligand Apolar Desolv:            -5.206446
##########      Internal Energy:             0.000000
##########      Receptor Energy: 0.0
########## Receptor Desolvation:             0.000000
########## Receptor Hydrophobic:             0.000000
##########         Total Energy: -39.67
##########        Ligand Charge:             0.000000
##########            Arbitrary:    +999.9990
##########     heavy atom count:   22
##########           pose count:    1
##########        Ligand Energy:             0.000000
# num electro vdwattr vdwrepu polsolv apolsol rdesolv rhydroe totalscore fullpol fullapo
#   1   -4.10   -2.20    0.62    2.01    0.17    0.00    0.00      -3.50    3.77    0.32
#   2    6.43   -1.76    0.26   -1.53   -0.35    0.00    0.00       3.05   -2.79   -0.64
#   3   -6.16   -2.47    1.47    1.30    0.77    0.00    0.00      -5.10    2.57    1.52
#   4    0.96   -1.76    0.47   -0.29   -0.30    0.00    0.00      -0.92   -0.64   -0.68
#   5   -0.13   -1.63    0.34    0.10   -0.18    0.00    0.00      -1.50    0.22   -0.41
#   6    0.19   -1.10    0.10   -0.03   -0.18    0.00    0.00      -1.02   -0.07   -0.47
#   7    0.61   -1.22    0.28   -0.18   -0.17    0.00    0.00      -0.67   -0.50   -0.47
#   8    0.08   -1.77    0.85   -0.02   -0.19    0.00    0.00      -1.06   -0.04   -0.45
#   9   -0.14   -1.75    0.55    0.16   -0.34    0.00    0.00      -1.53    0.33   -0.70
#  10    0.17   -2.24    0.41   -0.15    0.25    0.00    0.00      -1.56   -0.25    0.42
#  11   -0.58   -2.30    0.84    0.66   -0.39    0.00    0.00      -1.78    1.06   -0.63
#  12   -0.98   -4.13    2.79    0.73   -0.33    0.00    0.00      -1.92    1.21   -0.54
#  13   -1.88   -2.07    0.43    0.37   -0.25    0.00    0.00      -3.40    0.60   -0.41
#  14   -0.31   -2.83    0.94    0.07   -0.25    0.00    0.00      -2.37    0.12   -0.43
#  15   -0.87   -2.98    1.94    0.14   -0.24    0.00    0.00      -2.01    0.24   -0.40
#  16   -0.94   -3.42    1.85    0.05   -0.27    0.00    0.00      -2.73    0.09   -0.46
#  17   -1.13   -2.42    0.75   -0.07   -0.30    0.00    0.00      -3.17   -0.11   -0.47
#  18   -0.93   -2.35    0.57   -0.10   -0.31    0.00    0.00      -3.13   -0.16   -0.47
#  19   -0.93   -2.95    0.92   -0.05   -0.30    0.00    0.00      -3.32   -0.08   -0.46
#  20   -0.28   -2.79    1.19    0.05   -0.26    0.00    0.00      -2.09    0.08   -0.40
#  21   -0.61   -3.03    0.81    0.03   -0.29    0.00    0.00      -3.10    0.05   -0.45
#  22   -0.79   -2.40    0.44    0.11   -0.28    0.00    0.00      -2.92    0.17   -0.44
#  23    4.21   -0.10    0.03   -0.57    0.11    0.00    0.00       3.67   -1.33    0.26
#  24    0.46   -0.53    0.30   -0.15   -0.07    0.00    0.00       0.00   -0.42   -0.20
#  25   -1.26   -0.16    0.01    0.26   -0.05    0.00    0.00      -1.21    1.40   -0.28
#  26   -0.87   -0.16    0.01    0.30   -0.05    0.00    0.00      -0.77    1.78   -0.28
#  27   -0.81   -0.42    0.16    0.16   -0.09    0.00    0.00      -1.00    0.47   -0.27
#  28    1.76   -0.79    0.39   -0.28   -0.15    0.00    0.00       0.93   -0.49   -0.27
#  29    0.50   -1.63    3.24    0.08   -0.16    0.00    0.00       2.03    0.14   -0.28
#  30    1.05   -0.57    0.23    0.27   -0.14    0.00    0.00       0.84    0.55   -0.28
#  31    1.08   -0.68    0.48    0.35   -0.14    0.00    0.00       1.07    0.68   -0.28
#  32    0.66   -0.98    0.67    0.34   -0.17    0.00    0.00       0.52    0.57   -0.28
#  33    0.03   -0.81    0.21    0.31   -0.18    0.00    0.00      -0.44    0.50   -0.28
#  34    0.88   -0.61    0.24    0.01   -0.11    0.00    0.00       0.41    0.01   -0.21
@<TRIPOS>MOLECULE
E1671137
   34    36     0     0     0
SMALL
USER_CHARGES


@<TRIPOS>ATOM
      1 O1         19.0266   15.3551   62.5262 O.2       1            -0.5099
      2 C1         19.0228   15.4483   63.7383 C.2       1             0.5662
      3 N1         20.1762   15.6654   64.4010 N.am      1            -0.6645
      4 C2         21.3772   15.7834   63.6944 C.ar      1             0.2277
      5 C3         21.8072   17.0295   63.2559 C.ar      1            -0.1400
      6 C4         22.9936   17.1426   62.5584 C.ar      1            -0.0404
      7 C5         23.7533   16.0166   62.2959 C.ar      1            -0.1383
      8 C6         23.3281   14.7753   62.7309 C.ar      1            -0.0335
      9 C7         22.1453   14.6562   63.4344 C.ar      1            -0.0899
     10 N2         21.6942   13.3273   63.9055 N.pl3     1             0.0474
     11 O2         20.6565   13.2230   64.5170 O.2       1            -0.1374
     12 O3         22.3635   12.3464   63.6788 O.3       1            -0.1930
     13 C8         17.7532   15.3298   64.4844 C.ar      1            -0.1452
     14 C9         16.5590   15.6640   63.8666 C.ar      1            -0.0211
     15 C10        15.3575   15.5491   64.5808 C.ar      1            -0.0669
     16 C11        14.1250   15.8782   63.9881 C.ar      1            -0.0942
     17 C12        12.9770   15.7552   64.7084 C.ar      1            -0.1175
     18 C13        13.0032   15.3073   66.0279 C.ar      1            -0.1000
     19 C14        14.1771   14.9796   66.6343 C.ar      1            -0.1131
     20 C15        15.3837   15.0929   65.9235 C.ar      1            -0.0285
     21 C16        16.6127   14.7623   66.5228 C.ar      1            -0.1036
     22 C17        17.7653   14.8732   65.8144 C.ar      1            -0.0916
     23 H1         20.1732   15.7397   65.3681 H         1             0.4281
     24 H2         21.2142   17.9086   63.4600 H         1             0.1680
     25 H3         23.3285   18.1110   62.2172 H         1             0.1486
     26 H4         24.6804   16.1080   61.7495 H         1             0.1503
     27 H5         23.9235   13.8983   62.5243 H         1             0.1586
     28 H6         16.5535   16.0104   62.8436 H         1             0.1448
     29 H7         14.0901   16.2271   62.9666 H         1             0.1325
     30 H8         12.0320   16.0085   64.2511 H         1             0.1283
     31 H9         12.0779   15.2193   66.5779 H         1             0.1280
     32 H10        14.1810   14.6344   67.6577 H         1             0.1324
     33 H11        16.6386   14.4146   67.5450 H         1             0.1377
     34 H12        18.7043   14.6122   66.2799 H         1             0.1302
@<TRIPOS>BOND
     1    1    2 2 
     2    2    3 am
     3    2   13 1 
     4    3    4 1 
     5    3   23 1 
     6    4    9 ar
     7    4    5 ar
     8    5    6 ar
     9    5   24 1 
    10    6    7 ar
    11    6   25 1 
    12    7    8 ar
    13    7   26 1 
    14    8    9 ar
    15    8   27 1 
    16    9   10 1 
    17   10   11 2 
    18   10   12 1 
    19   13   22 ar
    20   13   14 ar
    21   14   15 ar
    22   14   28 1 
    23   15   20 ar
    24   15   16 ar
    25   16   17 ar
    26   16   29 1 
    27   17   18 ar
    28   17   30 1 
    29   18   19 ar
    30   18   31 1 
    31   19   20 ar
    32   19   32 1 
    33   20   21 ar
    34   21   22 ar
    35   21   33 1 
    36   22   34 1 
##########                 Name:            E36624700
##########          Protonation:                   93
##########               SMILES:   CC(C)CC[NH+]1CCN(CC1)Cc2ccc3c(c2)CCO3
##########            Long Name:   1-(2,3-dihydrobenzofuran-5-ylmethyl)-4-isopentyl-piperazin-4-ium
##########          FlexRecCode: 1
##########               Number:                  444
##########   Ligand Source File: /raidb/db2/rgc/leads-emolecules-300/leads-emolecules-3-bw-0000004.db2.gz
##########           GlobalRank: 4968
##########                 Rank:                    1
##########               Setnum:                   22
##########             Matchnum:                 4824
##########                Cloud:                    1
##########        Electrostatic:           -22.354614
##########        Van der Waals:           -21.648825
##########  Ligand Polar Desolv:             6.648444
########## Ligand Apolar Desolv:            -2.317876
##########      Internal Energy:             0.000000
##########      Receptor Energy: 0.0
########## Receptor Desolvation:             0.000000
########## Receptor Hydrophobic:             0.000000
##########         Total Energy: -39.67
##########        Ligand Charge:             1.000000
##########            Arbitrary:    +999.9990
##########     heavy atom count:   21
##########           pose count:    1
##########        Ligand Energy:             0.000000
# num electro vdwattr vdwrepu polsolv apolsol rdesolv rhydroe totalscore fullpol fullapo
#   1    0.50   -0.63    0.07   -0.90   -0.05    0.00    0.00      -1.01   -3.03   -0.18
#   2    0.74   -0.63    0.06   -0.52   -0.06    0.00    0.00      -0.40   -1.72   -0.19
#   3    0.62   -0.62    0.08   -0.85   -0.06    0.00    0.00      -0.84   -2.61   -0.18
#   4    1.59   -0.83    0.21   -1.05   -0.06    0.00    0.00      -0.14   -3.53   -0.19
#   5    0.48   -1.00    0.23   -0.08   -0.09    0.00    0.00      -0.47   -0.25   -0.28
#   6    8.72   -1.53    1.22   -3.61    0.14    0.00    0.00       4.95  -11.20    0.43
#   7  -15.57   -0.16    0.08    4.92    0.17    0.00    0.00     -10.56   16.47    0.56
#   8    0.14   -0.87    0.12    0.10   -0.16    0.00    0.00      -0.68    0.25   -0.41
#   9   -0.41   -1.14    0.36    0.14   -0.15    0.00    0.00      -1.20    0.37   -0.39
#  10    5.46   -0.90    0.09   -3.78    0.99    0.00    0.00       1.85  -12.30    3.21
#  11   -0.76   -0.67    0.07    0.65   -0.13    0.00    0.00      -0.83    2.01   -0.39
#  12    0.44   -1.20    0.16   -0.45   -0.13    0.00    0.00      -1.17   -1.20   -0.34
#  13    0.13   -1.50    0.27   -0.32   -0.19    0.00    0.00      -1.59   -0.77   -0.45
#  14    0.15   -2.20    0.72   -0.59   -0.23    0.00    0.00      -2.15   -1.23   -0.48
#  15    0.22   -1.98    0.57   -0.02   -0.18    0.00    0.00      -1.39   -0.04   -0.33
#  16   -1.20   -2.00    0.31   -0.73    0.63    0.00    0.00      -3.00   -1.17    1.01
#  17    0.21   -1.33    0.22    0.12   -0.10    0.00    0.00      -0.87    0.20   -0.16
#  18   -0.63   -1.18    0.35   -0.56   -0.17    0.00    0.00      -2.20   -1.01   -0.30
#  19   -0.38   -1.96    1.55   -0.82   -0.21    0.00    0.00      -1.82   -1.71   -0.44
#  20    0.07   -1.52    0.63   -0.30   -0.15    0.00    0.00      -1.27   -0.75   -0.38
#  21   -0.20   -0.46    0.03    0.02   -0.09    0.00    0.00      -0.71    0.06   -0.37
#  22    0.02   -0.46    0.04    0.15   -0.10    0.00    0.00      -0.36    0.60   -0.42
#  23   -0.42   -0.50    0.50    0.23   -0.07    0.00    0.00      -0.26    0.97   -0.28
#  24    0.04   -0.13    0.01   -0.01   -0.04    0.00    0.00      -0.13   -0.07   -0.28
#  25   -0.05   -0.19    0.02    0.43   -0.04    0.00    0.00       0.17    2.17   -0.22
#  26   -1.08   -0.40    0.18    0.38   -0.07    0.00    0.00      -0.99    1.46   -0.28
#  27   -0.26   -0.21    0.02    0.19   -0.07    0.00    0.00      -0.33    0.76   -0.28
#  28   -0.19   -0.28    0.13    0.22   -0.06    0.00    0.00      -0.19    0.98   -0.28
#  29   -0.14   -0.14    0.01    0.00   -0.04    0.00    0.00      -0.31    0.00   -0.28
#  30   -0.72   -0.68    0.97    0.94   -0.07    0.00    0.00       0.44    2.97   -0.21
#  31   -0.66   -0.12    0.01    0.39   -0.04    0.00    0.00      -0.42    2.95   -0.28
#  32   -2.07   -0.32    0.14    1.09   -0.05    0.00    0.00      -1.21    4.79   -0.22
#  33   -3.57   -0.62    0.40    1.27   -0.05    0.00    0.00      -2.57    3.55   -0.15
#  34   -2.13   -0.19    0.01    1.07   -0.04    0.00    0.00      -1.29    5.34   -0.22
#  35   -3.72   -0.40    0.11    1.59   -0.10    0.00    0.00      -2.52    4.42   -0.28
#  36   -0.80   -0.46    0.28    0.64   -0.07    0.00    0.00      -0.41    1.99   -0.22
#  37   -2.74   -0.78    0.72    0.97   -0.12    0.00    0.00      -1.95    2.32   -0.28
#  38   -0.42   -0.40    0.28    0.27   -0.06    0.00    0.00      -0.33    1.29   -0.28
#  39   -0.79   -0.20    0.01    0.36   -0.06    0.00    0.00      -0.67    1.60   -0.27
#  40   -0.39   -0.25    0.03    0.47   -0.07    0.00    0.00      -0.20    2.02   -0.28
#  41   -0.31   -0.64    0.33    0.20   -0.12    0.00    0.00      -0.55    0.46   -0.28
#  42    0.31   -0.61    0.32    0.54   -0.15    0.00    0.00       0.40    0.98   -0.28
#  43    0.41   -0.51    0.30    0.37   -0.12    0.00    0.00       0.45    0.85   -0.28
#  44    0.41   -0.66    0.63    0.38   -0.13    0.00    0.00       0.63    0.84   -0.28
#  45    0.98   -0.29    0.03    0.65   -0.10    0.00    0.00       1.27    1.85   -0.28
#  46   -0.26   -0.24    0.03    0.73   -0.07    0.00    0.00       0.19    2.93   -0.28
#  47   -0.36   -0.09    0.00    0.20   -0.02    0.00    0.00      -0.26    2.15   -0.21
#  48   -1.37   -0.22    0.03    0.33   -0.05    0.00    0.00      -1.27    1.55   -0.21
#  49   -1.19   -0.10    0.00    0.37   -0.02    0.00    0.00      -0.94    4.12   -0.28
#  50   -1.22   -0.16    0.01    0.87   -0.04    0.00    0.00      -0.54    5.59   -0.28
@<TRIPOS>MOLECULE
E36624700
   50    52     0     0     0
SMALL
USER_CHARGES


@<TRIPOS>ATOM
      1 C1         24.7454   24.1810   61.2717 C.3       1            -0.1598
      2 C2         24.6028   23.8860   59.7771 C.3       1            -0.0895
      3 C3         25.5647   24.7760   58.9876 C.3       1            -0.1540
      4 C4         24.9353   22.4160   59.5135 C.3       1            -0.1428
      5 C5         23.9733   21.5259   60.3031 C.3       1            -0.0239
      6 N1         24.2926   20.1145   60.0500 N.4       1            -0.3834
      7 H1         24.5210   19.9914   59.0749 H         1             0.4272
      8 C6         23.1311   19.2818   60.3891 C.3       1            -0.0064
      9 C7         23.4578   17.8129   60.1116 C.3       1             0.0246
     10 N2         24.6192   17.4137   60.9185 N.3       1            -0.5319
     11 C8         24.3074   17.4680   62.3531 C.3       1             0.1049
     12 C9         23.5438   16.2305   62.7485 C.ar      1            -0.1275
     13 C10        24.2217   15.1054   63.1810 C.ar      1            -0.0564
     14 C11        23.5278   13.9691   63.5412 C.ar      1            -0.1371
     15 C12        22.1368   13.9450   63.4719 C.ar      1             0.1198
     16 O1         21.2658   12.9387   63.7580 O.3       1            -0.3008
     17 C13        19.9528   13.4904   63.9546 C.3       1             0.0499
     18 C14        19.9842   14.7681   63.0830 C.3       1            -0.1126
     19 C15        21.4670   15.0830   63.0417 C.ar      1            -0.1740
     20 C16        22.1619   16.2178   62.6856 C.ar      1            -0.0667
     21 C17        25.7840   18.2516   60.6008 C.3       1             0.0201
     22 C18        25.4411   19.7174   60.8752 C.3       1            -0.0019
     23 H2         24.0600   23.5469   61.8341 H         1             0.0622
     24 H3         25.7691   23.9781   61.5860 H         1             0.0684
     25 H4         24.5084   25.2282   61.4595 H         1             0.0527
     26 H5         23.5791   24.0889   59.4627 H         1             0.0783
     27 H6         25.4632   24.5657   57.9228 H         1             0.0607
     28 H7         25.3278   25.8232   59.1754 H         1             0.0597
     29 H8         26.5884   24.5730   59.3019 H         1             0.0672
     30 H9         24.8338   22.2058   58.4488 H         1             0.0870
     31 H10        25.9590   22.2130   59.8279 H         1             0.0884
     32 H11        24.0749   21.7362   61.3678 H         1             0.1325
     33 H12        22.9496   21.7289   59.9885 H         1             0.1280
     34 H13        22.8901   19.4073   61.4448 H         1             0.1362
     35 H14        22.2774   19.5850   59.7831 H         1             0.1396
     36 H15        22.6008   17.1933   60.3756 H         1             0.0613
     37 H16        23.6881   17.6847   59.0540 H         1             0.1235
     38 H17        25.2342   17.5212   62.9245 H         1             0.0539
     39 H18        23.7018   18.3503   62.5601 H         1             0.0979
     40 H19        25.3002   15.1165   63.2366 H         1             0.1337
     41 H20        24.0650   13.0947   63.8779 H         1             0.1335
     42 H21        19.1869   12.8002   63.6006 H         1             0.1121
     43 H22        19.7926   13.7420   65.0030 H         1             0.0806
     44 H23        19.6007   14.5668   62.0826 H         1             0.0945
     45 H24        19.4274   15.5766   63.5566 H         1             0.0925
     46 H25        21.6282   17.0957   62.3526 H         1             0.1196
     47 H26        26.6280   17.9526   61.2225 H         1             0.0598
     48 H27        26.0445   18.1291   59.5495 H         1             0.1246
     49 H28        26.2989   20.3432   60.6292 H         1             0.1395
     50 H29        25.1913   19.8412   61.9290 H         1             0.1342
@<TRIPOS>BOND
     1    1    2 1 
     2    1   23 1 
     3    1   24 1 
     4    1   25 1 
     5    2    3 1 
     6    2    4 1 
     7    2   26 1 
     8    3   27 1 
     9    3   28 1 
    10    3   29 1 
    11    4    5 1 
    12    4   30 1 
    13    4   31 1 
    14    5    6 1 
    15    5   32 1 
    16    5   33 1 
    17    6    7 1 
    18    6   22 1 
    19    6    8 1 
    20    8    9 1 
    21    8   34 1 
    22    8   35 1 
    23    9   10 1 
    24    9   36 1 
    25    9   37 1 
    26   10   11 1 
    27   10   21 1 
    28   11   12 1 
    29   11   38 1 
    30   11   39 1 
    31   12   20 ar
    32   12   13 ar
    33   13   14 ar
    34   13   40 1 
    35   14   15 ar
    36   14   41 1 
    37   15   19 ar
    38   15   16 1 
    39   16   17 1 
    40   17   18 1 
    41   17   42 1 
    42   17   43 1 
    43   18   19 1 
    44   18   44 1 
    45   18   45 1 
    46   19   20 ar
    47   20   46 1 
    48   21   22 1 
    49   21   47 1 
    50   21   48 1 
    51   22   49 1 
    52   22   50 1 
##########                 Name:            E37020249
##########          Protonation:                   32
##########               SMILES:   C[C@H](C[NH+]1CCN(CC1)C(=O)[C@H]2C[C@@H]2c3cccnc3)O
##########            Long Name:   roxypropyl]piperazin-4-ium-1-yl]-[(1S,2S)-2-(3-pyridyl)cyclopropyl]methanone
##########          FlexRecCode: 1
##########               Number:                  407
##########   Ligand Source File: /raidb/db2/rgc/leads-emolecules-300/leads-emolecules-3-by-0000032.db2.gz
##########           GlobalRank: 4968
##########                 Rank:                    1
##########               Setnum:                   24
##########             Matchnum:                  875
##########                Cloud:                    1
##########        Electrostatic:           -21.901175
##########        Van der Waals:           -23.037865
##########  Ligand Polar Desolv:             6.677841
########## Ligand Apolar Desolv:            -1.410379
##########      Internal Energy:             0.000000
##########      Receptor Energy: 0.0
########## Receptor Desolvation:             0.000000
########## Receptor Hydrophobic:             0.000000
##########         Total Energy: -39.67
##########        Ligand Charge:             1.000000
##########            Arbitrary:    +999.9990
##########     heavy atom count:   21
##########           pose count:    1
##########        Ligand Energy:             0.000000
# num electro vdwattr vdwrepu polsolv apolsol rdesolv rhydroe totalscore fullpol fullapo
#   1    0.59   -0.51    0.03   -1.34   -0.06    0.00    0.00      -1.29   -4.45   -0.20
#   2   -0.60   -0.53    0.04    0.69   -0.04    0.00    0.00      -0.45    2.46   -0.15
#   3    3.64   -2.17    1.07   -5.26    0.58    0.00    0.00      -2.14  -14.72    1.63
#   4    0.45   -0.55    0.10   -0.14   -0.08    0.00    0.00      -0.22   -0.59   -0.33
#   5    6.14   -0.87    0.20   -3.30    0.08    0.00    0.00       2.24  -11.60    0.27
#   6   -9.91   -0.02    0.00    3.96    0.13    0.00    0.00      -5.84   15.01    0.48
#   7    0.32   -0.73    0.21    0.13   -0.11    0.00    0.00      -0.17    0.48   -0.40
#   8   -1.36   -0.61    0.05    0.53   -0.16    0.00    0.00      -1.55    1.62   -0.48
#   9    6.68   -1.04    0.07   -4.65    0.71    0.00    0.00       1.77  -13.04    2.00
#  10   -1.15   -1.89    1.52    0.66   -0.18    0.00    0.00      -1.04    1.73   -0.47
#  11    0.28   -0.94    0.26   -0.12   -0.11    0.00    0.00      -0.63   -0.40   -0.38
#  12   -3.22   -1.57    0.26    3.11   -0.25    0.00    0.00      -1.67    7.87   -0.63
#  13    1.89   -4.56    3.45   -2.41    0.18    0.00    0.00      -1.46   -5.22    0.38
#  14    0.69   -0.77    0.09   -0.79   -0.12    0.00    0.00      -0.90   -2.08   -0.31
#  15    0.42   -0.85    0.11   -0.67   -0.16    0.00    0.00      -1.14   -1.72   -0.41
#  16   -0.06   -1.35    0.43   -0.62   -0.16    0.00    0.00      -1.77   -1.40   -0.37
#  17   -0.32   -1.79    0.42   -0.42   -0.20    0.00    0.00      -2.31   -0.82   -0.40
#  18   -0.34   -1.61    0.31   -0.42   -0.25    0.00    0.00      -2.30   -0.78   -0.46
#  19   -0.89   -1.85    0.33   -0.79   -0.29    0.00    0.00      -3.49   -1.32   -0.48
#  20    0.27   -2.76    0.64    0.18   -0.64    0.00    0.00      -2.31    0.27   -0.98
#  21   -2.43   -3.75    1.49   -1.92    1.33    0.00    0.00      -5.28   -2.95    2.05
#  22    0.27   -2.58    0.71    0.40   -0.53    0.00    0.00      -1.72    0.69   -0.91
#  23   -0.09   -0.12    0.00    0.02   -0.03    0.00    0.00      -0.22    0.18   -0.28
#  24   -0.26   -0.24    0.05    0.38   -0.06    0.00    0.00      -0.12    1.80   -0.28
#  25   -0.23   -0.19    0.03    0.29   -0.05    0.00    0.00      -0.15    1.59   -0.28
#  26   -0.83   -0.13    0.01    0.48   -0.03    0.00    0.00      -0.50    3.63   -0.21
#  27   -7.64   -0.07    0.01    4.03    0.45    0.00    0.00      -3.23   11.02    1.22
#  28   -1.46   -0.34    0.20    1.26   -0.06    0.00    0.00      -0.39    5.95   -0.28
#  29   -0.62   -0.08    0.00    0.39   -0.02    0.00    0.00      -0.32    5.53   -0.28
#  30   -3.30   -0.69    1.13    1.62   -0.07    0.00    0.00      -1.31    6.47   -0.28
#  31   -1.24   -0.10    0.00    0.38   -0.03    0.00    0.00      -0.98    4.08   -0.28
#  32   -2.01   -0.26    0.03    0.87   -0.08    0.00    0.00      -1.45    3.11   -0.28
#  33   -1.60   -0.17    0.01    0.21   -0.05    0.00    0.00      -1.60    1.06   -0.24
#  34   -2.02   -0.81    1.37    1.21   -0.09    0.00    0.00      -0.35    3.58   -0.28
#  35   -1.13   -1.38    1.70    1.39   -0.08    0.00    0.00       0.49    3.29   -0.20
#  36   -0.63   -0.22    0.03    0.96   -0.06    0.00    0.00       0.08    4.71   -0.28
#  37   -1.28   -0.44    0.30    1.33   -0.05    0.00    0.00      -0.15    5.76   -0.22
#  38   -0.63   -0.30    0.15    0.79   -0.05    0.00    0.00      -0.03    3.66   -0.22
#  39   -0.52   -0.27    0.05    0.64   -0.06    0.00    0.00      -0.17    2.24   -0.22
#  40   -0.38   -0.29    0.05    0.25   -0.06    0.00    0.00      -0.43    1.11   -0.28
#  41    0.45   -1.11    1.79    0.23   -0.11    0.00    0.00       1.25    0.52   -0.26
#  42    1.16   -0.32    0.05    0.46   -0.09    0.00    0.00       1.27    1.41   -0.28
#  43    1.08   -0.45    0.17    0.64   -0.11    0.00    0.00       1.32    1.58   -0.28
#  44   -0.14   -0.97    0.69    0.83   -0.18    0.00    0.00       0.23    1.29   -0.28
#  45    0.04   -0.67    0.29    1.20   -0.10    0.00    0.00       0.76    2.46   -0.21
@<TRIPOS>MOLECULE
E37020249
   45    47     0     0     0
SMALL
USER_CHARGES


@<TRIPOS>ATOM
      1 C1         26.3878   24.0262   59.0233 C.3       1            -0.1898
      2 C2         25.2998   23.1282   59.6154 C.3       1             0.0816
      3 O1         24.2120   23.0275   58.6944 O.3       1            -0.5567
      4 C3         25.8757   21.7353   59.8789 C.3       1            -0.0475
      5 N1         24.8309   20.8731   60.4475 N.4       1            -0.3804
      6 H1         23.9552   21.0552   59.9803 H         1             0.4280
      7 C4         25.2025   19.4655   60.2558 C.3       1            -0.0200
      8 C5         24.0623   18.5662   60.7447 C.3       1             0.0886
      9 N2         23.7475   18.9270   62.1356 N.am      1            -0.6314
     10 C6         23.5209   20.3463   62.4494 C.3       1             0.0861
     11 C7         24.6880   21.1601   61.8805 C.3       1            -0.0270
     12 C8         23.6683   17.9839   63.0952 C.2       1             0.5565
     13 O2         23.9497   18.2606   64.2420 O.2       1            -0.5068
     14 C9         23.2300   16.5857   62.7432 C.3       1            -0.1948
     15 C10        24.2470   15.4582   62.9311 C.3       1            -0.1373
     16 C11        23.0626   15.5879   63.8908 C.3       1            -0.0662
     17 C12        21.9569   14.5707   63.7728 C.ar      1            -0.1192
     18 C13        20.6364   14.9790   63.6603 C.ar      1            -0.0624
     19 C14        19.6523   14.0084   63.5541 C.ar      1            -0.1660
     20 C15        20.0176   12.6753   63.5639 C.ar      1             0.1027
     21 N3         21.2836   12.3236   63.6730 N.ar      1            -0.4793
     22 C16        22.2464   13.2197   63.7697 C.ar      1             0.0994
     23 H2         27.2177   24.1031   59.7258 H         1             0.0886
     24 H3         26.7433   23.5968   58.0866 H         1             0.0797
     25 H4         25.9775   25.0184   58.8356 H         1             0.0726
     26 H5         24.9443   23.5574   60.5521 H         1             0.1226
     27 H6         23.4839   22.4718   59.0048 H         1             0.3909
     28 H7         26.2311   21.3059   58.9422 H         1             0.1367
     29 H8         26.7054   21.8120   60.5816 H         1             0.1404
     30 H9         25.3847   19.2786   59.1974 H         1             0.1442
     31 H10        26.1065   19.2477   60.8242 H         1             0.1337
     32 H11        23.1827   18.7172   60.1189 H         1             0.0967
     33 H12        24.3735   17.5226   60.6984 H         1             0.1371
     34 H13        22.5866   20.6771   61.9958 H         1             0.1014
     35 H14        23.4741   20.4796   63.5301 H         1             0.1333
     36 H15        25.6082   20.8897   62.3987 H         1             0.1345
     37 H16        24.4909   22.2230   62.0204 H         1             0.1454
     38 H17        22.5403   16.5068   61.9030 H         1             0.1295
     39 H18        24.2265   14.6373   62.2143 H         1             0.1173
     40 H19        25.2331   15.7277   63.3092 H         1             0.1120
     41 H20        23.2695   15.9427   64.9005 H         1             0.1324
     42 H21        20.3807   16.0284   63.6558 H         1             0.1370
     43 H22        18.6136   14.2902   63.4653 H         1             0.1410
     44 H23        19.2569   11.9129   63.4818 H         1             0.1609
     45 H24        23.2728   12.8936   63.8521 H         1             0.1538
@<TRIPOS>BOND
     1    1    2 1 
     2    1   23 1 
     3    1   24 1 
     4    1   25 1 
     5    2    3 1 
     6    2    4 1 
     7    2   26 1 
     8    3   27 1 
     9    4    5 1 
    10    4   28 1 
    11    4   29 1 
    12    5    6 1 
    13    5   11 1 
    14    5    7 1 
    15    7    8 1 
    16    7   30 1 
    17    7   31 1 
    18    8    9 1 
    19    8   32 1 
    20    8   33 1 
    21    9   10 1 
    22    9   12 am
    23   10   11 1 
    24   10   34 1 
    25   10   35 1 
    26   11   36 1 
    27   11   37 1 
    28   12   13 2 
    29   12   14 1 
    30   14   16 1 
    31   14   15 1 
    32   14   38 1 
    33   15   16 1 
    34   15   39 1 
    35   15   40 1 
    36   16   17 1 
    37   16   41 1 
    38   17   22 ar
    39   17   18 ar
    40   18   19 ar
    41   18   42 1 
    42   19   20 ar
    43   19   43 1 
    44   20   21 ar
    45   20   44 1 
    46   21   22 ar
    47   22   45 1 
##########                 Name:             E2583121
##########          Protonation:                   38
##########               SMILES:   c1ccc2c(c1)CC[NH2+][C@H]2CNCc3ccc4c(c3)OCO4
##########            Long Name:   l-5-yl)-N-[[(1R)-1,2,3,4-tetrahydroisoquinolin-2-ium-1-yl]methyl]methanamine
##########          FlexRecCode: 1
##########               Number:                  350
##########   Ligand Source File: /raidb/db2/rgc/leads-emolecules-300/leads-emolecules-2h-0000149.db2.gz
##########           GlobalRank: 5008
##########                 Rank:                    1
##########               Setnum:                    2
##########             Matchnum:                 7094
##########                Cloud:                    1
##########        Electrostatic:           -19.238386
##########        Van der Waals:           -25.152683
##########  Ligand Polar Desolv:             6.400101
########## Ligand Apolar Desolv:            -1.662024
##########      Internal Energy:             0.000000
##########      Receptor Energy: 0.0
########## Receptor Desolvation:             0.000000
########## Receptor Hydrophobic:             0.000000
##########         Total Energy: -39.65
##########        Ligand Charge:             1.000000
##########            Arbitrary:    +999.9990
##########     heavy atom count:   22
##########           pose count:    1
##########        Ligand Energy:             0.000000
# num electro vdwattr vdwrepu polsolv apolsol rdesolv rhydroe totalscore fullpol fullapo
#   1   -0.41   -0.98    0.20    0.37   -0.14    0.00    0.00      -0.96    0.92   -0.35
#   2    6.78   -1.01    0.06   -7.49    0.97    0.00    0.00      -0.69  -18.17    2.36
#   3   -0.34   -1.13    0.17    1.11   -0.20    0.00    0.00      -0.38    2.50   -0.44
#   4   -0.02   -1.55    0.26   -0.34   -0.16    0.00    0.00      -1.81   -0.80   -0.37
#   5    0.07   -1.79    0.50   -0.55   -0.19    0.00    0.00      -1.96   -1.30   -0.46
#   6    0.04   -2.14    0.75   -0.63   -0.23    0.00    0.00      -2.20   -1.30   -0.47
#   7    0.10   -2.12    0.51   -0.19   -0.18    0.00    0.00      -1.88   -0.35   -0.33
#   8   -1.72   -3.25    1.34   -0.96    0.33    0.00    0.00      -4.25   -1.50    0.52
#   9    0.60   -2.11    0.57    0.91    0.01    0.00    0.00      -0.02    1.38    0.02
#  10   -1.37   -1.53    0.20   -1.23    0.32    0.00    0.00      -3.62   -2.02    0.52
#  11    0.13   -1.70    0.49   -0.15   -0.19    0.00    0.00      -1.42   -0.26   -0.33
#  12   -0.33   -1.63    0.38   -0.46   -0.20    0.00    0.00      -2.25   -1.04   -0.46
#  13   -1.92   -0.87    0.16    1.36   -0.09    0.00    0.00      -1.35    3.79   -0.24
#  14    9.12   -1.10    0.37   -4.85    0.22    0.00    0.00       3.77  -15.84    0.73
#  15   -6.90   -0.02    0.00    3.51    0.13    0.00    0.00      -3.28   15.42    0.55
#  16  -11.30   -0.06    0.01    4.55    0.14    0.00    0.00      -6.66   16.91    0.52
#  17    0.03   -0.41    0.02    0.15   -0.10    0.00    0.00      -0.31    0.67   -0.47
#  18    0.74   -0.33    0.01   -0.56   -0.05    0.00    0.00      -0.18   -2.97   -0.24
#  19    0.78   -0.65    0.04   -0.35   -0.09    0.00    0.00      -0.27   -1.47   -0.40
#  20    0.37   -0.51    0.01   -0.51   -0.09    0.00    0.00      -0.73   -2.48   -0.46
#  21    0.32   -0.67    0.03   -0.55   -0.12    0.00    0.00      -0.99   -2.10   -0.47
#  22    1.18   -1.21    0.22   -0.75   -0.15    0.00    0.00      -0.71   -2.43   -0.47
#  23    1.94   -2.20    1.11   -0.69   -0.14    0.00    0.00       0.02   -2.03   -0.42
#  24    2.25   -1.22    0.21   -0.68   -0.12    0.00    0.00       0.45   -2.16   -0.38
#  25   -1.49   -0.53    0.29    0.69   -0.08    0.00    0.00      -1.13    1.99   -0.23
#  26   -1.17   -0.42    0.12    0.81   -0.08    0.00    0.00      -0.74    2.82   -0.28
#  27   -3.62   -0.02    0.00    2.31    0.13    0.00    0.00      -1.19   10.39    0.57
#  28   -0.34   -0.52    0.13    0.85   -0.11    0.00    0.00       0.00    2.11   -0.28
#  29   -0.05   -0.59    0.34    0.66   -0.12    0.00    0.00       0.24    1.50   -0.28
#  30   -0.32   -0.39    0.12    0.99   -0.08    0.00    0.00       0.33    3.58   -0.28
#  31   -0.33   -0.49    0.16    0.50   -0.11    0.00    0.00      -0.27    1.27   -0.28
#  32    0.37   -0.86    0.53    0.87   -0.18    0.00    0.00       0.74    1.37   -0.28
#  33   -0.16   -1.07    0.91    0.79   -0.18    0.00    0.00       0.28    1.20   -0.28
#  34    1.27   -0.36    0.09    0.90   -0.10    0.00    0.00       1.81    2.61   -0.28
#  35   -4.09   -0.46    0.18    2.16   -0.10    0.00    0.00      -2.31    6.17   -0.28
#  36   -1.20   -0.18    0.02    1.01   -0.04    0.00    0.00      -0.39    6.46   -0.28
#  37   -0.94   -0.09    0.00    0.44   -0.03    0.00    0.00      -0.62    4.68   -0.28
#  38   -0.25   -0.07    0.00    0.26   -0.02    0.00    0.00      -0.08    3.28   -0.28
#  39   -0.81   -0.11    0.01    0.27   -0.03    0.00    0.00      -0.67    2.43   -0.28
#  40   -0.09   -0.08    0.00    0.13   -0.02    0.00    0.00      -0.06    1.78   -0.28
#  41   -0.14   -0.15    0.02    0.13   -0.04    0.00    0.00      -0.19    0.81   -0.28
#  42   -1.64   -0.23    0.03    0.27   -0.06    0.00    0.00      -1.64    1.23   -0.28
#  43   -4.36   -1.06    2.09    1.33   -0.08    0.00    0.00      -2.08    3.49   -0.22
@<TRIPOS>MOLECULE
E2583121
   43    46     0     0     0
SMALL
USER_CHARGES


@<TRIPOS>ATOM
      1 C1         23.0282   19.7390   61.8495 C.3       1             0.0276
      2 N1         22.8326   18.2879   61.9680 N.3       1            -0.7040
      3 C2         22.6849   17.8898   63.3742 C.3       1             0.1084
      4 C3         22.4867   16.3981   63.4558 C.ar      1            -0.0930
      5 C4         23.5813   15.5628   63.5800 C.ar      1            -0.0994
      6 C5         23.4053   14.1932   63.6552 C.ar      1            -0.0997
      7 C6         22.1304   13.6564   63.6064 C.ar      1             0.0444
      8 O1         21.6719   12.3742   63.6582 O.3       1            -0.3050
      9 C7         20.3427   12.3942   63.1164 C.3       1             0.2128
     10 O2         19.9095   13.7193   63.4581 O.3       1            -0.3068
     11 C8         21.0272   14.4983   63.4811 C.ar      1             0.0331
     12 C9         21.2100   15.8686   63.4119 C.ar      1            -0.0803
     13 C10        23.6611   20.0592   60.4937 C.3       1             0.0900
     14 N2         24.6443   19.0217   60.1655 N.4       1            -0.4955
     15 H1         24.2137   18.1119   60.2362 H         1             0.4298
     16 H2         24.9858   19.1631   59.2266 H         1             0.4388
     17 C11        25.7603   19.1150   61.1183 C.3       1            -0.0035
     18 C12        26.5730   20.3633   60.7733 C.3       1            -0.1080
     19 C13        25.6671   21.5650   60.6901 C.ar      1            -0.0864
     20 C14        26.2260   22.8314   60.7485 C.ar      1            -0.1047
     21 C15        25.4208   23.9509   60.6731 C.ar      1            -0.0897
     22 C16        24.0523   23.8073   60.5387 C.ar      1            -0.1054
     23 C17        23.4946   22.5454   60.4813 C.ar      1            -0.0930
     24 C18        24.3016   21.4213   60.5576 C.ar      1            -0.1304
     25 H3         22.0650   20.2431   61.9289 H         1             0.0845
     26 H4         23.6856   20.0834   62.6476 H         1             0.1051
     27 H5         22.0412   17.9838   61.4209 H         1             0.3512
     28 H6         23.5823   18.1679   63.9268 H         1             0.0929
     29 H7         21.8210   18.3952   63.8061 H         1             0.0593
     30 H8         24.5764   15.9808   63.6179 H         1             0.1364
     31 H9         24.2621   13.5429   63.7518 H         1             0.1400
     32 H10        20.3599   12.2558   62.0353 H         1             0.1377
     33 H11        19.7149   11.6426   63.5951 H         1             0.0890
     34 H12        20.3563   16.5237   63.3195 H         1             0.1355
     35 H13        22.8837   20.0658   59.7297 H         1             0.1430
     36 H14        25.3718   19.1977   62.1333 H         1             0.1407
     37 H15        26.3913   18.2302   61.0342 H         1             0.1327
     38 H16        27.3243   20.5300   61.5452 H         1             0.1048
     39 H17        27.0690   20.2177   59.8137 H         1             0.1231
     40 H18        27.2949   22.9436   60.8538 H         1             0.1358
     41 H19        25.8593   24.9367   60.7193 H         1             0.1373
     42 H20        23.4202   24.6809   60.4790 H         1             0.1375
     43 H21        22.4255   22.4341   60.3764 H         1             0.1334
@<TRIPOS>BOND
     1    1    2 1 
     2    1   13 1 
     3    1   25 1 
     4    1   26 1 
     5    2    3 1 
     6    2   27 1 
     7    3    4 1 
     8    3   28 1 
     9    3   29 1 
    10    4   12 ar
    11    4    5 ar
    12    5    6 ar
    13    5   30 1 
    14    6    7 ar
    15    6   31 1 
    16    7   11 ar
    17    7    8 1 
    18    8    9 1 
    19    9   10 1 
    20    9   32 1 
    21    9   33 1 
    22   10   11 1 
    23   11   12 ar
    24   12   34 1 
    25   13   24 1 
    26   13   14 1 
    27   13   35 1 
    28   14   15 1 
    29   14   16 1 
    30   14   17 1 
    31   17   18 1 
    32   17   36 1 
    33   17   37 1 
    34   18   19 1 
    35   18   38 1 
    36   18   39 1 
    37   19   24 ar
    38   19   20 ar
    39   20   21 ar
    40   20   40 1 
    41   21   22 ar
    42   21   41 1 
    43   22   23 ar
    44   22   42 1 
    45   23   24 ar
    46   23   43 1 
